geometry optimzed in LAMMPS
_audit_creation_date              2020-11-30 
_audit_creation_method            'lammps2cif' 
_symmetry_space_group_name_H-M    'P1' 
_symmetry_Int_Tables_number       1 
_symmetry_cell_setting            triclinic 
loop_ 
_symmetry_equiv_pos_as_xyz 
  x,y,z 
_cell_length_a                    37.40857086 
_cell_length_b                    38.053022649566316 
_cell_length_c                    38.068124304094084 
_cell_angle_alpha                 89.97777020687982 
_cell_angle_beta                  89.98259598943142 
_cell_angle_gamma                 90.03364190810241 
loop_ 
_atom_site_label 
_atom_site_type_symbol 
_atom_site_fract_x 
_atom_site_fract_y 
_atom_site_fract_z 
_atom_site_charge 
O1          O  0.01124803  0.06273506  0.10173131    -0.85800
O2          O  0.99151787  0.05490591  0.39508091    -0.86000
O3          O  0.07412174  0.08999868  0.99534391    -0.87600
O4          O  0.43392989  0.09609483  0.98973976    -0.86400
O5          O  0.39231313  0.05178213  0.98964545    -0.86000
O6          O  0.11172182  0.04262961  0.99381849    -0.87300
O7          O  0.99646992  0.09890876  0.43604404    -0.85800
O8          O  0.01738701  0.10203302  0.05645144    -0.85400
Zr9        Zr  0.01261627  0.06994968  0.00146275     2.84300
O10         O  0.46389427  0.03533588  0.46331134    -1.07400
O11         O  0.04629755  0.03332907  0.03730063    -1.08100
C12         C  0.01470341  0.09433370  0.08931934     1.07300
C13         C  0.99373274  0.08748607  0.40416282     1.07300
C14         C  0.10541990  0.07585311  0.99293640     1.10200
C15         C  0.40142692  0.08423052  0.98863121     1.08000
H16         H  0.04660143  0.05092797  0.43933379     0.33600
O17         O  0.03303718  0.03683798  0.45571169    -1.28300
H18         H  0.43966480  0.05272219  0.04308225     0.33200
O19         O  0.45581315  0.03731820  0.03065880    -1.30000
O20         O  0.01603180  0.43976774  0.40079546    -0.85800
O21         O  0.00389904  0.45039636  0.10664091    -0.87300
O22         O  0.09391458  0.99994869  0.43052046    -0.85900
O23         O  0.39447957  0.00462410  0.44922275    -0.85900
O24         O  0.38850392  0.99881869  0.04653723    -0.85600
O25         O  0.10709137  0.99258658  0.05362219    -0.85400
O26         O  0.06880294  0.40493747  0.01238486    -0.85800
O27         O  0.42716639  0.41058989  0.01330457    -0.85300
O28         O  0.10840021  0.45078609  0.00882529    -0.86300
O29         O  0.38900443  0.45763673  0.01090755    -0.85500
O30         O  0.04707601  0.99654809  0.39173770    -0.85900
O31         O  0.06701381  0.99996872  0.09864542    -0.85600
O32         O  0.42779960  0.00450200  0.09255519    -0.85300
O33         O  0.43432100  0.00020647  0.40364639    -0.85700
O34         O  0.01589763  0.39697690  0.44332471    -0.86000
O35         O  0.00640320  0.40396424  0.06825283    -0.87300
Zr36       Zr  0.99311225  0.99928785  0.42629964     2.83100
Zr37       Zr  0.00687948  0.00386165  0.07472433     2.83500
Zr38       Zr  0.07301649  0.99192407  0.00040822     2.84100
Zr39       Zr  0.42442751  0.99771833  0.99480165     2.83400
Zr40       Zr  0.00809076  0.42732910  0.00905246     2.84200
O41         O  0.45994610  0.47271426  0.04118785    -1.07900
O42         O  0.04322082  0.46257128  0.46572789    -1.07400
C43         C  0.01798730  0.40743373  0.41144793     1.07300
C44         C  0.00462724  0.41724778  0.09937929     1.09900
C45         C  0.08055298  0.99716266  0.39937328     1.07500
C46         C  0.40242923  0.00306731  0.41653950     1.07800
C47         C  0.39590303  0.00149041  0.07924780     1.07400
C48         C  0.09888887  0.99596630  0.08614254     1.07000
C49         C  0.10064714  0.41808428  0.01156269     1.07400
C50         C  0.39560005  0.42456016  0.01348052     1.06900
H51         H  0.05666990  0.45598397  0.05804408     0.33600
O52         O  0.04087663  0.46792708  0.04196105    -1.29000
H53         H  0.45769186  0.44367954  0.44598687     0.33600
O54         O  0.47052836  0.45939611  0.46132416    -1.30400
O55         O  0.00303453  0.18502280  0.15752974    -0.85800
O56         O  0.00719600  0.20514012  0.35745234    -0.86000
O57         O  0.06345037  0.15390250  0.26029489    -0.87600
O58         O  0.45078973  0.14420074  0.25182089    -0.86400
O59         O  0.40389366  0.18216034  0.24344939    -0.86000
O60         O  0.10568144  0.19711274  0.25420733    -0.87300
O61         O  0.00331773  0.15902906  0.31867418    -0.85800
O62         O  0.00563021  0.14760227  0.20486999    -0.85400
Zr63       Zr  0.00468155  0.18206155  0.25907592     2.84300
O64         O  0.46129932  0.21359413  0.28297330    -1.07400
O65         O  0.03755609  0.21370945  0.21825783    -1.08100
C66         C  0.00543860  0.15400430  0.17152785     1.07300
C67         C  0.00434812  0.17210322  0.34998966     1.07300
C68         C  0.09606031  0.16503889  0.25805046     1.10200
C69         C  0.41740993  0.15119308  0.24776755     1.08000
H70         H  0.05802045  0.20625472  0.30558512     0.33600
O71         O  0.04239027  0.21954897  0.29040080    -1.28300
H72         H  0.45667673  0.19137781  0.19760018     0.33200
O73         O  0.46925612  0.20812625  0.21210102    -1.30000
O74         O  0.01225439  0.32094649  0.34292237    -0.85800
O75         O  0.99844831  0.29990489  0.14712279    -0.87300
O76         O  0.10903880  0.25815896  0.30220257    -0.85900
O77         O  0.38899815  0.24460885  0.29202267    -0.85900
O78         O  0.40462831  0.23944254  0.18064052    -0.85600
O79         O  0.10304023  0.24333817  0.19469441    -0.85400
O80         O  0.06548129  0.34977840  0.23994927    -0.85800
O81         O  0.42801777  0.34054050  0.23521916    -0.85300
O82         O  0.10681712  0.30559507  0.24299369    -0.86300
O83         O  0.38962114  0.29359347  0.23418538    -0.85500
O84         O  0.06906132  0.26045647  0.34776780    -0.85900
O85         O  0.05929909  0.24080105  0.15234346    -0.85600
O86         O  0.45171541  0.24055852  0.14202478    -0.85300
O87         O  0.42720573  0.25423984  0.33818332    -0.85700
O88         O  0.01021909  0.35884024  0.29597967    -0.86000
O89         O  0.00266781  0.34603086  0.18582327    -0.87300
Zr90       Zr  0.00910032  0.25961745  0.32327688     2.83100
Zr91       Zr  0.99947618  0.24518755  0.18089842     2.83500
Zr92       Zr  0.07457276  0.25174076  0.24942383     2.84100
Zr93       Zr  0.42655803  0.24206965  0.24060629     2.83400
Zr94       Zr  0.00622806  0.32230032  0.24479798     2.84200
O95         O  0.46170380  0.27834316  0.20516864    -1.07900
O96         O  0.04330292  0.29172572  0.28326412    -1.07400
C97         C  0.01227881  0.35204648  0.32892469     1.07300
C98         C  0.00024616  0.33300806  0.15462882     1.06700
C99         C  0.10101677  0.25982046  0.33490863     1.07500
C100        C  0.39571487  0.25000683  0.32468875     1.07800
C101        C  0.41817007  0.23976908  0.14942491     1.07400
C102        C  0.09242498  0.24022348  0.16297834     1.07000
C103        C  0.09793400  0.33795696  0.24028209     1.07400
C104        C  0.39646393  0.32665983  0.23364904     1.06900
H105        H  0.05343750  0.29623565  0.19391244     0.33600
O106        O  0.03878220  0.28344284  0.21040429    -1.29000
H107        H  0.43586634  0.29907237  0.28846709     0.33600
O108        O  0.45333014  0.28462751  0.27663943    -1.30400
O109        O  0.36191904  0.50280351  0.20796183    -0.85800
O110        O  0.16105658  0.51151700  0.18250957    -0.86000
O111        O  0.26011206  0.45004495  0.14741860    -0.87600
O112        O  0.24222320  0.06173644  0.15290887    -0.86400
O113        O  0.23931952  0.10230314  0.19759114    -0.86000
O114        O  0.24829956  0.40440324  0.18523774    -0.87300
O115        O  0.20890381  0.50950342  0.14470529    -0.85800
O116        O  0.32429323  0.50798218  0.16072272    -0.85400
Zr117      Zr  0.26193417  0.50592974  0.18075576     2.84300
O118        O  0.20990585  0.03463812  0.21843502    -1.07400
O119        O  0.29097777  0.46500483  0.21605597    -1.08100
C120        C  0.35573877  0.50690282  0.17505011     1.07300
C121        C  0.17521320  0.51114881  0.15128638     1.07300
C122        C  0.25385500  0.41715667  0.15427020     1.10200
C123        C  0.23971614  0.09367135  0.16477658     1.08000
H124        H  0.20510289  0.45883994  0.19239981     0.33600
O125        O  0.21957148  0.47098997  0.20950417    -1.28300
H126        H  0.29518973  0.05555754  0.20068555     0.33200
O127        O  0.28144030  0.03974889  0.21528071    -1.30000
O128        O  0.14747944  0.50604564  0.29872326    -0.85800
O129        O  0.34720469  0.48855404  0.31703735    -0.87300
O130        O  0.18728750  0.40723056  0.23886617    -0.85900
O131        O  0.18326117  0.09430315  0.25636959    -0.85900
O132        O  0.29941273  0.10423362  0.25342048    -0.85600
O133        O  0.30739381  0.39941079  0.24023960    -0.85400
O134        O  0.23934616  0.43262343  0.34466219    -0.85800
O135        O  0.25149877  0.05430328  0.35201541    -0.85300
O136        O  0.24301298  0.39418137  0.29840367    -0.86300
O137        O  0.24714716  0.09895621  0.31162854    -0.85500
O138        O  0.14796134  0.45364831  0.23771821    -0.85900
O139        O  0.35123019  0.44059152  0.24987484    -0.85600
O140        O  0.34501257  0.06394298  0.25072810    -0.85300
O141        O  0.14347008  0.04848234  0.25669114    -0.85700
O142        O  0.18590366  0.49573895  0.34458574    -0.86000
O143        O  0.30012334  0.48412268  0.35522941    -0.87300
Zr144      Zr  0.18240689  0.50673060  0.24390865     2.83100
Zr145      Zr  0.32354527  0.49599474  0.25837547     2.83500
Zr146      Zr  0.24877101  0.42896462  0.24418093     2.84100
Zr147      Zr  0.24428868  0.07155827  0.25355713     2.83400
Zr148      Zr  0.24594289  0.49181409  0.32097149     2.84200
O149        O  0.28495826  0.03821730  0.28645533    -1.07900
O150        O  0.21091448  0.46389567  0.27866091    -1.07400
C151        C  0.15459191  0.50170911  0.33175869     1.07300
C152        C  0.33374580  0.48504956  0.34800968     1.09900
C153        C  0.15547790  0.42070314  0.23714558     1.07500
C154        C  0.15127470  0.08128773  0.25682244     1.07800
C155        C  0.33263330  0.09567947  0.25229753     1.07400
C156        C  0.34045711  0.40941864  0.24311835     1.07000
C157        C  0.23988351  0.40133268  0.33154496     1.07400
C158        C  0.24961205  0.08693924  0.34337186     1.06900
H159        H  0.29664188  0.44066957  0.30022118     0.33600
O160        O  0.28372373  0.45762607  0.28626960    -1.29000
H161        H  0.19803141  0.04663568  0.30605784     0.33600
O162        O  0.21315886  0.03344497  0.29027472    -1.30400
O163        O  0.20782491  0.14256503  0.49165046    -0.85800
O164        O  0.18536562  0.34158031  0.50866851    -0.86000
O165        O  0.14325331  0.24270536  0.04789850    -0.87600
O166        O  0.14894352  0.24313459  0.44931285    -0.86400
O167        O  0.18898216  0.25382927  0.40476281    -0.86000
O168        O  0.18227007  0.24078663  0.09425213    -0.87300
O169        O  0.14682788  0.29470087  0.50556330    -0.85800
O170        O  0.16035243  0.18025899  0.49840783    -0.85400
Zr171      Zr  0.18217097  0.24081087  0.50346618     2.84300
O172        O  0.21192912  0.28284186  0.46924423    -1.07400
O173        O  0.21267743  0.21027283  0.03031745    -1.08100
C174        C  0.17421790  0.14932610  0.49418920     1.07300
C175        C  0.15381789  0.32788741  0.50737551     1.07300
C176        C  0.15039107  0.24076267  0.08069724     1.10200
C177        C  0.15711702  0.24904932  0.41704596     1.08000
H178        H  0.19473888  0.29533910  0.05251156     0.33600
O179        O  0.21083577  0.28262998  0.03731814    -1.28300
H180        H  0.20488791  0.19869141  0.44699145     0.33200
O181        O  0.21927665  0.21324879  0.46217993    -1.30000
O182        O  0.29994754  0.35467561  0.50523555    -0.85800
O183        O  0.32350370  0.15863057  0.48898995    -0.87300
O184        O  0.24542611  0.29901673  0.10524192    -0.85900
O185        O  0.24199464  0.31374985  0.40332196    -0.85900
O186        O  0.25070062  0.20312062  0.39270518    -0.85600
O187        O  0.24299848  0.18324070  0.09458215    -0.85400
O188        O  0.34520061  0.24758384  0.06359296    -0.85800
O189        O  0.35123127  0.26229370  0.43989253    -0.85300
O190        O  0.29959578  0.24278779  0.10366464    -0.86300
O191        O  0.30732805  0.25835668  0.39799960    -0.85500
O192        O  0.24829858  0.34542542  0.06655823    -0.85900
O193        O  0.24891978  0.14524641  0.04790399    -0.85600
O194        O  0.25895145  0.15687761  0.43066786    -0.85300
O195        O  0.23959438  0.35223138  0.44971417    -0.85700
O196        O  0.34662258  0.31602467  0.50021790    -0.86000
O197        O  0.36125626  0.20610831  0.49123566    -0.87300
Zr198      Zr  0.24590582  0.31937028  0.50537467     2.83100
Zr199      Zr  0.26121790  0.17843400  0.49159884     2.83500
Zr200      Zr  0.24394686  0.24367837  0.07153581     2.84100
Zr201      Zr  0.24941200  0.25546227  0.42843753     2.83400
Zr202      Zr  0.32341615  0.25690437  0.49616748     2.84200
O203        O  0.29108023  0.22068158  0.45818441    -1.07900
O204        O  0.28105566  0.28365630  0.04180104    -1.07400
C205        C  0.33346816  0.34716103  0.50310451     1.07300
C206        C  0.35497013  0.17300627  0.48963228     1.09900
C207        C  0.24745236  0.33228150  0.09789822     1.07500
C208        C  0.23922306  0.34492529  0.41641777     1.07800
C209        C  0.25443579  0.17024102  0.39960285     1.07400
C210        C  0.24535673  0.15200308  0.08107243     1.07000
C211        C  0.33282774  0.24461814  0.09513437     1.07400
C212        C  0.34034595  0.26060953  0.40801967     1.06900
H213        H  0.29814836  0.19673146  0.04884023     0.33600
O214        O  0.28336644  0.21221243  0.03497670    -1.29000
H215        H  0.29631787  0.30900237  0.45069981     0.33600
O216        O  0.28352812  0.29193708  0.46469287    -1.30400
C217        C  0.23773065  0.12365670  0.13971195    -0.15700
C218        C  0.24445721  0.12099907  0.10504559    -0.30900
H219        H  0.23216236  0.14941108  0.15076739     0.13300
H220        H  0.25016803  0.09534350  0.09387018     0.13900
C221        C  0.25275630  0.39232949  0.12407446    -0.15700
C222        C  0.24886060  0.35714807  0.12803906    -0.30900
H223        H  0.25527863  0.40337347  0.09787110     0.13300
H224        H  0.24688371  0.34606282  0.15427707     0.13900
C225        C  0.23781817  0.37108983  0.35623981    -0.15700
C226        C  0.23660636  0.37498969  0.39156449    -0.30900
H227        H  0.23908858  0.34487287  0.34501674     0.13300
H228        H  0.23545806  0.40121264  0.40277821     0.13900
C229        C  0.25059489  0.11161234  0.37303331    -0.15700
C230        C  0.25296523  0.14645850  0.36909308    -0.30900
H231        H  0.25002102  0.10039012  0.39929100     0.13300
H232        H  0.25319831  0.15791989  0.34292960     0.13900
C233        C  0.39302917  0.12099838  0.24809059    -0.15700
C234        C  0.35781230  0.12521241  0.25247894    -0.30900
H235        H  0.40433361  0.09484746  0.24527931     0.13300
H236        H  0.34679260  0.15142821  0.25590645     0.13900
C237        C  0.36542433  0.35026079  0.23274956    -0.15700
C238        C  0.36973189  0.38442850  0.23904811    -0.30900
H239        H  0.33882502  0.33924583  0.22952941     0.13300
H240        H  0.39651965  0.39493178  0.24284044     0.13900
C241        C  0.12554180  0.14000612  0.26006916    -0.15700
C242        C  0.12078261  0.10541940  0.25714923    -0.30900
H243        H  0.15236197  0.15072352  0.26270696     0.13300
H244        H  0.09404735  0.09459972  0.25417957     0.13900
C245        C  0.12824587  0.36229009  0.23808130    -0.15700
C246        C  0.12449425  0.39701986  0.23529495    -0.30900
H247        H  0.15485282  0.35097940  0.24016394     0.13300
H248        H  0.09796766  0.40851265  0.23343462     0.13900
C249        C  0.39345699  0.23990237  0.11955256    -0.15700
C250        C  0.35816758  0.24337161  0.12435683    -0.30900
H251        H  0.40450877  0.23800101  0.09321167     0.13300
H252        H  0.34721926  0.24528481  0.15074266     0.13900
C253        C  0.12218160  0.23629632  0.13828647    -0.15700
C254        C  0.11886084  0.23959354  0.10375316    -0.30900
H255        H  0.14869349  0.23293230  0.14955572     0.13300
H256        H  0.09255102  0.24323559  0.09219880     0.13900
C257        C  0.13119820  0.25996250  0.35913431    -0.15700
C258        C  0.12702023  0.25066580  0.39270728    -0.30900
H259        H  0.15759188  0.26582459  0.34868892     0.13300
H260        H  0.10065116  0.24407108  0.40278047     0.13900
C261        C  0.36472111  0.25196504  0.34834630    -0.15700
C262        C  0.36916887  0.26050427  0.38209792    -0.30900
H263        H  0.33822793  0.24633400  0.33807186     0.13300
H264        H  0.39587883  0.26576414  0.39208492     0.13900
C265        C  0.36833018  0.36609366  0.01786135    -0.15700
C266        C  0.36428767  0.40097777  0.01536686    -0.30900
H267        H  0.34771026  0.40306315  0.50409289     0.13300
H268        H  0.33774887  0.41224553  0.01259318     0.13900
C269        C  0.37134993  0.10884705  0.98689308    -0.15700
C270        C  0.37530845  0.14320620  0.99228878    -0.30900
H271        H  0.35609126  0.10418744  0.49147443     0.13300
H272        H  0.40184127  0.15407716  0.99657861     0.13900
C273        C  0.12619574  0.35957558  0.00974540    -0.15700
C274        C  0.13097497  0.39411743  0.01296125    -0.30900
H275        H  0.09940370  0.34863324  0.00779891     0.13300
H276        H  0.15419892  0.39809532  0.51099920     0.13900
C277        C  0.13189346  0.13439938  0.98792007    -0.15700
C278        C  0.13648427  0.09950956  0.98961434    -0.30900
H279        H  0.10498964  0.14517988  0.98726703     0.13300
H280        H  0.10432507  0.14923996  0.48212917     0.13900
C281        C  0.37198129  0.00435534  0.39263750    -0.15700
C282        C  0.37615286  0.00116558  0.35807152    -0.30900
H283        H  0.34546256  0.00775457  0.40383903     0.13300
H284        H  0.34744455  0.47808088  0.40377317     0.13900
C285        C  0.10536890  0.99475992  0.36982215    -0.15700
C286        C  0.14072124  0.99363245  0.37495999    -0.30900
H287        H  0.15597400  0.50018882  0.40285973     0.13300
H288        H  0.15164824  0.99396106  0.40142130     0.13900
C289        C  0.12888340  0.99532764  0.11050192    -0.15700
C290        C  0.12403307  0.99866666  0.14500909    -0.30900
H291        H  0.10463125  0.51988709  0.14851536     0.13300
H292        H  0.09727694  0.00114840  0.15590410     0.13900
C293        C  0.36468289  0.00105325  0.10258936    -0.15700
C294        C  0.36836736  0.00532384  0.13696597    -0.30900
H295        H  0.35751309  0.52631238  0.10870483     0.13300
H296        H  0.39495721  0.00876877  0.14801155     0.13900
C297        C  0.00203033  0.14738571  0.37985406    -0.15700
C298        C  0.99416278  0.11318361  0.37519231    -0.30900
H299        H  0.49653076  0.15689689  0.40300746     0.13300
H300        H  0.50135233  0.09817547  0.34833825     0.13900
C301        C  0.02172540  0.37893297  0.38610146    -0.15700
C302        C  0.01410721  0.38270230  0.35215495    -0.30900
H303        H  0.02779118  0.35299284  0.39653344     0.13300
H304        H  0.48433193  0.40567341  0.34065083     0.13900
C305        C  0.00323035  0.39274708  0.12930249    -0.15700
C306        C  0.00028773  0.35774941  0.12485296    -0.30900
H307        H  0.49254550  0.40375057  0.15271179     0.13300
H308        H  0.99861852  0.34675640  0.09856414     0.13900
C309        C  0.01443021  0.12501531  0.11352033    -0.15700
C310        C  0.00800783  0.12270207  0.14820613    -0.30900
H311        H  0.49313173  0.15271307  0.09603665     0.13300
H312        H  0.00473358  0.09694807  0.16011287     0.13900
O313        O  0.01078550  0.06366550  0.59413274    -0.85800
O314        O  0.00288266  0.05895649  0.90337404    -0.86000
O315        O  0.05648299  0.10325690  0.48770060    -0.87600
O316        O  0.44546996  0.10046592  0.49403476    -0.86400
O317        O  0.40135332  0.05870520  0.49717626    -0.86000
O318        O  0.10066391  0.06173271  0.48768129    -0.87300
O319        O  0.01061984  0.10024778  0.94682645    -0.85800
O320        O  0.00960965  0.10347639  0.54852896    -0.85400
Zr321      Zr  0.00117833  0.07219414  0.49428177     2.84300
O322        O  0.46162236  0.03088447  0.95905074    -1.07400
O323        O  0.03977499  0.03881966  0.52914763    -1.08100
C324        C  0.01128798  0.09547261  0.58125040     1.07300
C325        C  0.00646390  0.09133794  0.91466387     1.07300
C326        C  0.08935601  0.09385058  0.48698225     1.10200
C327        C  0.41228734  0.09035612  0.49435043     1.08000
H328        H  0.05743022  0.04260284  0.94841561     0.33600
O329        O  0.04143022  0.03029296  0.96409853    -1.28300
H330        H  0.45344947  0.05431945  0.54931010     0.33200
O331        O  0.46726307  0.03816156  0.53518729    -1.30000
O332        O  0.00508286  0.42875511  0.90861035    -0.85800
O333        O  0.99220035  0.43383751  0.59616152    -0.87300
O334        O  0.10086143  0.98308610  0.94476135    -0.85900
O335        O  0.40052034  0.99608116  0.93536506    -0.85900
O336        O  0.39996470  0.00644052  0.55813719    -0.85600
O337        O  0.10902388  0.00464790  0.54162061    -0.85400
O338        O  0.06549975  0.39973990  0.50356483    -0.85800
O339        O  0.45297203  0.39361857  0.49986878    -0.85300
O340        O  0.10601409  0.44463525  0.50795646    -0.86300
O341        O  0.40588477  0.43207730  0.49661722    -0.85500
O342        O  0.05824436  0.99033662  0.90190978    -0.85900
O343        O  0.07125829  0.00235925  0.58920242    -0.85600
O344        O  0.44240792  0.00493640  0.60160097    -0.85300
O345        O  0.44673736  0.98962758  0.89641362    -0.85700
O346        O  0.00942233  0.39151504  0.95591586    -0.86000
O347        O  0.00082034  0.39393505  0.55178181    -0.87300
Zr348      Zr  0.99981126  0.99835826  0.93090483     2.83100
Zr349      Zr  0.00823844  0.00301694  0.56919168     2.83500
Zr350      Zr  0.07154432  0.00399520  0.49014857     2.84100
Zr351      Zr  0.42875305  0.00298596  0.50215318     2.83400
Zr352      Zr  0.00612082  0.42561260  0.49795680     2.84200
O353        O  0.46478974  0.45708454  0.53171406    -1.07900
O354        O  0.04057869  0.46161601  0.96973838    -1.07400
C355        C  0.00777534  0.39764777  0.92260384     1.07300
C356        C  0.99555684  0.40209226  0.58397648     1.09900
C357        C  0.09071743  0.98487524  0.91268038     1.07500
C358        C  0.41342187  0.99280621  0.90406244     1.07800
C359        C  0.40955478  0.00660256  0.59044238     1.07400
C360        C  0.10283996  0.00323807  0.57478627     1.07000
C361        C  0.09757785  0.41190570  0.50667790     1.07400
C362        C  0.41931770  0.40102806  0.49914899     1.06900
H363        H  0.04997813  0.44659826  0.55406066     0.33600
O364        O  0.03582162  0.46080691  0.53831128    -1.29000
H365        H  0.43612528  0.45121305  0.95824080     0.33600
O366        O  0.45373066  0.46550560  0.97001518    -1.30400
O367        O  0.99562160  0.19059011  0.64742358    -0.85800
O368        O  0.00499253  0.18498647  0.84572311    -0.86000
O369        O  0.06249102  0.15289254  0.74190777    -0.87600
O370        O  0.45100572  0.14256753  0.75552191    -0.86400
O371        O  0.40364452  0.18053155  0.75343830    -0.86000
O372        O  0.10487706  0.19615808  0.73850364    -0.87300
O373        O  0.00397276  0.14579965  0.79976274    -0.85800
O374        O  0.99935746  0.14916971  0.69132298    -0.85400
Zr375      Zr  0.00250116  0.17939147  0.74622485     2.84300
O376        O  0.46377486  0.21064836  0.79014046    -1.07400
O377        O  0.03420211  0.21461187  0.70736929    -1.08100
C378        C  0.99710298  0.15831659  0.65901145     1.07300
C379        C  0.00450147  0.15312787  0.83268353     1.07300
C380        C  0.09517198  0.16405712  0.73963108     1.10200
C381        C  0.41735275  0.14947826  0.75482436     1.08000
H382        H  0.05588825  0.19817787  0.79371064     0.33600
O383        O  0.03982471  0.21337772  0.78084392    -1.28300
H384        H  0.45402450  0.19167301  0.70307201     0.33200
O385        O  0.46702031  0.20838389  0.71724689    -1.30000
O386        O  0.00741817  0.30523873  0.85059871    -0.85800
O387        O  0.99121979  0.31146008  0.65210542    -0.87300
O388        O  0.10723251  0.24734735  0.79452986    -0.85900
O389        O  0.39357454  0.23894273  0.80533508    -0.85900
O390        O  0.39746482  0.23499860  0.69567807    -0.85600
O391        O  0.09559828  0.24764574  0.68107150    -0.85400
O392        O  0.06376975  0.34661574  0.74834577    -0.85800
O393        O  0.42615299  0.33815046  0.74740397    -0.85300
O394        O  0.10500144  0.30275440  0.74274471    -0.86300
O395        O  0.38811031  0.29099686  0.74758729    -0.85500
O396        O  0.06851678  0.24766663  0.84166294    -0.85900
O397        O  0.04961950  0.24918044  0.64103870    -0.85600
O398        O  0.44026731  0.24172644  0.65278666    -0.85300
O399        O  0.43394998  0.24829266  0.84976828    -0.85700
O400        O  0.00709621  0.34692637  0.80689914    -0.86000
O401        O  0.99738441  0.35093184  0.69751691    -0.87300
Zr402      Zr  0.00546081  0.24650229  0.82098584     2.83100
Zr403      Zr  0.99493962  0.25038957  0.67493907     2.83500
Zr404      Zr  0.07206433  0.24898568  0.74146202     2.84100
Zr405      Zr  0.42647449  0.24009271  0.75119479     2.83400
Zr406      Zr  0.00476217  0.31811723  0.75040138     2.84200
O407        O  0.45858830  0.27826992  0.71471853    -1.07900
O408        O  0.04086874  0.28174831  0.78334412    -1.07400
C409        C  0.00773415  0.33766405  0.83940483     1.07300
C410        C  0.99271722  0.34312057  0.66512022     1.06700
C411        C  0.10034911  0.24778599  0.82762873     1.07500
C412        C  0.40195563  0.24367413  0.83767565     1.07800
C413        C  0.40755505  0.23747862  0.66361905     1.07400
C414        C  0.08297815  0.24749500  0.64933564     1.07000
C415        C  0.09620683  0.33510574  0.74554330     1.07400
C416        C  0.39458109  0.32414215  0.74671472     1.06900
H417        H  0.04926273  0.30031144  0.69339287     0.33600
O418        O  0.03517707  0.28515470  0.70841744    -1.29000
H419        H  0.43771026  0.29476665  0.80026097     0.33600
O420        O  0.45492680  0.28118911  0.78713133    -1.30400
O421        O  0.35548634  0.49566333  0.69738483    -0.85800
O422        O  0.15403306  0.50876229  0.68445060    -0.86000
O423        O  0.25745158  0.44628998  0.64539004    -0.87600
O424        O  0.25416554  0.05885051  0.65049632    -0.86400
O425        O  0.24743318  0.09940456  0.69495941    -0.86000
O426        O  0.25077228  0.40155395  0.68532149    -0.87300
O427        O  0.19981880  0.50488143  0.64452043    -0.85800
O428        O  0.31507151  0.49975592  0.65241324    -0.85400
Zr429      Zr  0.25521818  0.50162471  0.67715246     2.84300
O430        O  0.21381016  0.03373090  0.71244890    -1.07400
O431        O  0.28718855  0.46302200  0.71225784    -1.08100
C432        C  0.34707030  0.49698905  0.66475216     1.07300
C433        C  0.16654649  0.50737624  0.65278590     1.07300
C434        C  0.25501197  0.41351744  0.65366251     1.10200
C435        C  0.25153349  0.09082282  0.66226137     1.08000
H436        H  0.19956965  0.45418380  0.69270002     0.33600
O437        O  0.21453720  0.46738480  0.70861999    -1.28300
H438        H  0.29904488  0.05269660  0.70584299     0.33200
O439        O  0.28349160  0.03712791  0.71877473    -1.30000
O440        O  0.14615830  0.50068617  0.79790796    -0.85800
O441        O  0.34966852  0.49156016  0.80616457    -0.87300
O442        O  0.18582543  0.40512808  0.74321282    -0.85900
O443        O  0.18257676  0.09397160  0.74788010    -0.85900
O444        O  0.29866675  0.10288306  0.75494748    -0.85600
O445        O  0.30495868  0.39764491  0.74484851    -0.85400
O446        O  0.24744639  0.43831474  0.84540077    -0.85800
O447        O  0.23973742  0.05339665  0.85278050    -0.85300
O448        O  0.24603474  0.39761722  0.80072633    -0.86300
O449        O  0.24271333  0.09763233  0.81161734    -0.85500
O450        O  0.14624469  0.45134829  0.74227029    -0.85900
O451        O  0.34837053  0.43998764  0.75011570    -0.85600
O452        O  0.34417946  0.06271586  0.75905345    -0.85300
O453        O  0.14277813  0.04829650  0.74522149    -0.85700
O454        O  0.18605661  0.49465295  0.84333976    -0.86000
O455        O  0.30594797  0.49499440  0.84831214    -0.87300
Zr456      Zr  0.17992381  0.50555446  0.74340100     2.83100
Zr457      Zr  0.32114412  0.49702081  0.75060485     2.83500
Zr458      Zr  0.24706294  0.42841706  0.74420160     2.84100
Zr459      Zr  0.24321975  0.07036140  0.75247195     2.83400
Zr460      Zr  0.24725917  0.49736548  0.81852869     2.84200
O461        O  0.27736423  0.03601972  0.79088431    -1.07900
O462        O  0.21179711  0.46600818  0.77878600    -1.07400
C463        C  0.15381718  0.49631745  0.83067031     1.07300
C464        C  0.33894830  0.49232117  0.83805760     1.09900
C465        C  0.15385647  0.41838780  0.74306216     1.07500
C466        C  0.15061969  0.08101294  0.74579479     1.07800
C467        C  0.33189065  0.09439099  0.75707957     1.07400
C468        C  0.33789193  0.40798324  0.74748680     1.07000
C469        C  0.24707765  0.40630797  0.83359648     1.07400
C470        C  0.24162975  0.08609660  0.84376988     1.06900
H471        H  0.29653634  0.44578452  0.79727983     0.33600
O472        O  0.28251755  0.46141668  0.78282898    -1.29000
H473        H  0.18973818  0.04630014  0.79919333     0.33600
O474        O  0.20678602  0.03292178  0.78560877    -1.30400
O475        O  0.19393585  0.14923970  0.98983120    -0.85800
O476        O  0.18828194  0.34748585  0.00880696    -0.86000
O477        O  0.15608461  0.23690047  0.56245995    -0.87600
O478        O  0.15022766  0.25537930  0.94098233    -0.86400
O479        O  0.19337348  0.25877745  0.89831260    -0.86000
O480        O  0.20190379  0.23701361  0.60260592    -0.87300
O481        O  0.14723094  0.30309298  0.00228705    -0.85800
O482        O  0.15101614  0.19228222  0.99091573    -0.85400
Zr483      Zr  0.17931508  0.24902923  0.99651652     2.84300
O484        O  0.21438487  0.28958076  0.96606214    -1.07400
O485        O  0.22376286  0.20595271  0.53270423    -1.08100
C486        C  0.16115468  0.16002988  0.98944529     1.07300
C487        C  0.15605924  0.33532743  0.00680086     1.07300
C488        C  0.16849763  0.23665104  0.59423099     1.10200
C489        C  0.16033661  0.25779056  0.90893385     1.08000
H490        H  0.20105384  0.28919217  0.55618453     0.33600
O491        O  0.21636192  0.27710880  0.53976331    -1.28300
H492        H  0.20187765  0.20429165  0.94300825     0.33200
O493        O  0.21644433  0.21753677  0.95925590    -1.30000
O494        O  0.30617133  0.35170458  0.01211534    -0.85800
O495        O  0.31244085  0.15481354  0.99143920    -0.87300
O496        O  0.25626103  0.29634832  0.60361904    -0.85900
O497        O  0.25252380  0.31822739  0.90558102    -0.85900
O498        O  0.25197640  0.20361369  0.89403960    -0.85600
O499        O  0.25876228  0.18067413  0.59216064    -0.85400
O500        O  0.35767868  0.25511298  0.54945316    -0.85800
O501        O  0.35336219  0.25791923  0.95206326    -0.85300
O502        O  0.31839626  0.24292579  0.59413029    -0.86300
O503        O  0.31334093  0.25678058  0.90626188    -0.85500
O504        O  0.24879004  0.34264793  0.56542201    -0.85900
O505        O  0.26184653  0.14288856  0.54517977    -0.85600
O506        O  0.25141818  0.15682347  0.93236772    -0.85300
O507        O  0.24924459  0.35668040  0.95208454    -0.85700
O508        O  0.34869811  0.30839128  0.01347571    -0.86000
O509        O  0.35286786  0.19951563  0.99921670    -0.87300
Zr510      Zr  0.24798175  0.32217340  0.00673907     2.83100
Zr511      Zr  0.25160193  0.17933385  0.99314288     2.83500
Zr512      Zr  0.25760936  0.24165673  0.56999825     2.84100
Zr513      Zr  0.25209569  0.25785166  0.92879591     2.83400
Zr514      Zr  0.31920562  0.25267918  0.00522308     2.84200
O515        O  0.28724150  0.22017239  0.96353266    -1.07900
O516        O  0.28678008  0.28482364  0.53666281    -1.07400
C517        C  0.33883957  0.34070960  0.01450266     1.07300
C518        C  0.34465007  0.16720029  0.99423069     1.09900
C519        C  0.25288945  0.32942113  0.59656773     1.07500
C520        C  0.25086696  0.34961026  0.91881180     1.07800
C521        C  0.25113239  0.17031559  0.90100934     1.07400
C522        C  0.25989136  0.14942818  0.57846808     1.07000
C523        C  0.35015865  0.24859785  0.58167955     1.07400
C524        C  0.34533289  0.25707090  0.91929478     1.06900
H525        H  0.31179680  0.19935734  0.54203869     0.33600
O526        O  0.29476154  0.21370775  0.52952701    -1.29000
H527        H  0.30159378  0.30651649  0.95735496     0.33600
O528        O  0.28585342  0.29055802  0.96961900    -1.30400
C529        C  0.25357048  0.12103779  0.63730924    -0.15700
C530        C  0.25840831  0.11820994  0.60230107    -0.30900
H531        H  0.25109414  0.14711241  0.64867400     0.13300
H532        H  0.26062187  0.09226946  0.59058433     0.13900
C533        C  0.25669212  0.38859775  0.62372331    -0.15700
C534        C  0.25327577  0.35359032  0.62715994    -0.30900
H535        H  0.26021880  0.39975301  0.59765276     0.13300
H536        H  0.25062522  0.34218545  0.65319768     0.13900
C537        C  0.24837630  0.37649488  0.85898816    -0.15700
C538        C  0.25044750  0.38022308  0.89421867    -0.30900
H539        H  0.24763530  0.35017849  0.84794226     0.13300
H540        H  0.25102965  0.40644920  0.90548032     0.13900
C541        C  0.24301435  0.11140236  0.87358544    -0.15700
C542        C  0.24922353  0.14613546  0.87021063    -0.30900
H543        H  0.23965760  0.10050484  0.89977722     0.13300
H544        H  0.25242905  0.15732888  0.84413933     0.13900
C545        C  0.39280103  0.11931238  0.75583496    -0.15700
C546        C  0.35725277  0.12381025  0.75663478    -0.30900
H547        H  0.40414744  0.09303031  0.75605558     0.13300
H548        H  0.34605057  0.15016119  0.75621915     0.13900
C549        C  0.36319899  0.34763545  0.74532069    -0.15700
C550        C  0.36726910  0.38244377  0.74773861    -0.30900
H551        H  0.33664433  0.33625647  0.74309345     0.13300
H552        H  0.39402373  0.39332560  0.75035674     0.13900
C553        C  0.12474299  0.13915294  0.73907721    -0.15700
C554        C  0.12011060  0.10491932  0.74423376    -0.30900
H555        H  0.15154931  0.14973471  0.73567070     0.13300
H556        H  0.09338310  0.09412388  0.74737462     0.13900
C557        C  0.12653432  0.35969782  0.74503037    -0.15700
C558        C  0.12278094  0.39456889  0.74434072    -0.30900
H559        H  0.15318961  0.34833895  0.74431252     0.13300
H560        H  0.09619603  0.40607096  0.74482370     0.13900
C561        C  0.37806089  0.23583510  0.63835025    -0.15700
C562        C  0.38099665  0.24755814  0.60551618    -0.30900
H563        H  0.35222434  0.22694140  0.64802354     0.13300
H564        H  0.40668299  0.25675565  0.59581096     0.13900
C565        C  0.10824649  0.24506943  0.61961103    -0.15700
C566        C  0.14298208  0.23722217  0.62386837    -0.30900
H567        H  0.09776539  0.24954589  0.59336225     0.13300
H568        H  0.15350355  0.23289747  0.65012572     0.13900
C569        C  0.13225570  0.24848416  0.85060495    -0.15700
C570        C  0.13031013  0.25922526  0.88389727    -0.30900
H571        H  0.15789008  0.24057059  0.83972652     0.13300
H572        H  0.10445089  0.26694537  0.89441635     0.13900
C573        C  0.37183822  0.24497398  0.86206857    -0.15700
C574        C  0.37574627  0.25555946  0.89526170    -0.30900
H575        H  0.34549300  0.23825889  0.85202907     0.13300
H576        H  0.40210182  0.26184164  0.90553834     0.13900
C577        C  0.35868274  0.37663432  0.50324328    -0.15700
C578        C  0.39421614  0.37153075  0.50130757    -0.30900
H579        H  0.39503458  0.35514652  0.02052239     0.13300
H580        H  0.40521834  0.34510631  0.50102795     0.13900
C581        C  0.38285228  0.11542146  0.49142659    -0.15700
C582        C  0.38666288  0.15012135  0.48970366    -0.30900
H583        H  0.34476022  0.09793099  0.98312323     0.13300
H584        H  0.41314892  0.16185865  0.49002142     0.13900
C585        C  0.12306239  0.35203095  0.50735888    -0.15700
C586        C  0.12749587  0.38702347  0.50880103    -0.30900
H587        H  0.09641418  0.34087404  0.50515345     0.13300
H588        H  0.15772953  0.40520745  0.01433090     0.13900
C589        C  0.15002433  0.11886629  0.49210577    -0.15700
C590        C  0.11507068  0.12298186  0.48605651    -0.30900
H591        H  0.16113078  0.09272158  0.49567093     0.13300
H592        H  0.16321271  0.08835773  0.99016289     0.13900
C593        C  0.38846365  0.99295406  0.87432887    -0.15700
C594        C  0.35384348  0.00103737  0.87838713    -0.30900
H595        H  0.39893895  0.98677812  0.84841641     0.13300
H596        H  0.39384111  0.48125472  0.85386425     0.13900
C597        C  0.12009644  0.98177272  0.88745416    -0.15700
C598        C  0.11650035  0.98817110  0.85323967    -0.30900
H599        H  0.15190797  0.48757570  0.90116575     0.13300
H600        H  0.09019201  0.99287989  0.84208552     0.13900
C601        C  0.13505958  0.00229705  0.59741695    -0.15700
C602        C  0.13223267  0.99885957  0.63213363    -0.30900
H603        H  0.09510086  0.49834457  0.65320286     0.13300
H604        H  0.10566628  0.99681727  0.64359513     0.13900
C605        C  0.37891060  0.00873984  0.61490321    -0.15700
C606        C  0.38092825  0.00518248  0.64972087    -0.30900
H607        H  0.34463152  0.49126539  0.59460621     0.13300
H608        H  0.40691236  0.00200359  0.66208139     0.13900
C609        C  0.00461442  0.12124525  0.85575591    -0.15700
C610        C  0.00566463  0.12247667  0.89077747    -0.30900
H611        H  0.49346526  0.14950347  0.90292230     0.13300
H612        H  0.50271142  0.09237866  0.84677957     0.13900
C613        C  0.00849671  0.36589501  0.89941493    -0.15700
C614        C  0.00854581  0.36804092  0.86419768    -0.30900
H615        H  0.00854887  0.34014053  0.91173730     0.13300
H616        H  0.47759457  0.39799031  0.85128761     0.13900
C617        C  0.99394225  0.37148065  0.60745800    -0.15700
C618        C  0.98974682  0.37395504  0.64200565    -0.30900
H619        H  0.50638706  0.34370884  0.59430774     0.13300
H620        H  0.98670987  0.39968556  0.65406670     0.13900
C621        C  0.01351073  0.12634160  0.60475489    -0.15700
C622        C  0.99528859  0.12804388  0.63479995    -0.30900
H623        H  0.50742470  0.15063283  0.59644040     0.13300
H624        H  0.98089488  0.10486596  0.64373205     0.13900
O625        O  0.99818869  0.56401725  0.09670408    -0.85800
O626        O  0.00613677  0.55532043  0.40184635    -0.86000
O627        O  0.05307791  0.60095199  0.99187238    -0.87600
O628        O  0.44925003  0.60623799  0.99226963    -0.86400
O629        O  0.40271089  0.56786976  0.00061364    -0.86000
O630        O  0.09785248  0.55974267  0.99553536    -0.87300
O631        O  0.00075636  0.59863982  0.44368916    -0.85800
O632        O  0.99444134  0.60266508  0.05044746    -0.85400
Zr633      Zr  0.99553269  0.56887436  0.99477285     2.84300
O634        O  0.46423352  0.53039376  0.46245436    -1.07400
O635        O  0.03460136  0.54007205  0.03379531    -1.08100
C636        C  0.99584367  0.59531328  0.08378469     1.07300
C637        C  0.00335277  0.58774557  0.41135400     1.07300
C638        C  0.08639868  0.59125535  0.99221572     1.10200
C639        C  0.41569073  0.59887779  0.99595667     1.08000
H640        H  0.05421412  0.54986676  0.45541982     0.33600
O641        O  0.03850436  0.53446434  0.46837194    -1.28300
H642        H  0.45580101  0.56076065  0.04779490     0.33200
O643        O  0.46827971  0.54355713  0.03376255    -1.30000
O644        O  0.99147073  0.94022763  0.39904890    -0.85800
O645        O  0.00292066  0.94731259  0.10543402    -0.87300
O646        O  0.10634326  0.50079655  0.45033125    -0.85900
O647        O  0.40514775  0.48876649  0.43517092    -0.85900
O648        O  0.40101747  0.51648308  0.06099156    -0.85600
O649        O  0.10229130  0.50968029  0.06085586    -0.85400
O650        O  0.04665303  0.89453288  0.00631888    -0.85800
O651        O  0.43676940  0.89997277  0.00892802    -0.85300
O652        O  0.09436896  0.93219691  0.00324684    -0.86300
O653        O  0.39442789  0.94189749  0.99733320    -0.85500
O654        O  0.06716962  0.50217651  0.40402791    -0.85900
O655        O  0.05807089  0.51194138  0.10244864    -0.85600
O656        O  0.44566417  0.51409847  0.10225916    -0.85300
O657        O  0.45163728  0.49520417  0.39629481    -0.85700
O658        O  0.99766787  0.89980914  0.44333499    -0.86000
O659        O  0.99402148  0.90318771  0.06518155    -0.87300
Zr660      Zr  0.00806407  0.49752751  0.42896734     2.83100
Zr661      Zr  0.00214040  0.50483475  0.07268037     2.83500
Zr662      Zr  0.07272736  0.50274948  0.00288364     2.84100
Zr663      Zr  0.42658153  0.50897624  0.00407711     2.83400
Zr664      Zr  0.99325097  0.93080990  0.00712990     2.84200
O665        O  0.45629103  0.96663990  0.03761377    -1.07900
O666        O  0.03354824  0.96608659  0.45895340    -1.07400
C667        C  0.99431928  0.90830950  0.41081363     1.07300
C668        C  0.99855816  0.91466770  0.09684926     1.09900
C669        C  0.09891006  0.50199722  0.41708863     1.07500
C670        C  0.41829891  0.49117076  0.40387613     1.07800
C671        C  0.41250571  0.51684237  0.09266904     1.07400
C672        C  0.09096654  0.51237797  0.09302383     1.07000
C673        C  0.08038401  0.90132101  0.00502391     1.07400
C674        C  0.40418538  0.91019274  0.00372661     1.06900
H675        H  0.04949997  0.94685536  0.05392783     0.33600
O676        O  0.03556217  0.96243757  0.03944000    -1.29000
H677        H  0.44088536  0.95055907  0.45121787     0.33600
O678        O  0.45768156  0.96429649  0.46472646    -1.30400
O679        O  0.99827125  0.68221883  0.15672518    -0.85800
O680        O  0.00118803  0.70452075  0.35784534    -0.86000
O681        O  0.04962126  0.64344555  0.26039945    -0.87600
O682        O  0.44409673  0.64975974  0.25630896    -0.86400
O683        O  0.40118034  0.69081751  0.24266062    -0.86000
O684        O  0.09554249  0.68286348  0.25324007    -0.87300
O685        O  0.99520657  0.65682564  0.32115807    -0.85800
O686        O  0.99478853  0.64363008  0.20311376    -0.85400
Zr687      Zr  0.99422317  0.67699044  0.25916408     2.84300
O688        O  0.46106825  0.71673657  0.28325558    -1.07400
O689        O  0.03270576  0.70580610  0.21975406    -1.08100
C690        C  0.99637787  0.65092943  0.16975084     1.07300
C691        C  0.99824325  0.67116942  0.35207102     1.07300
C692        C  0.08299504  0.65141039  0.25693618     1.10200
C693        C  0.41143849  0.65956098  0.24993784     1.08000
H694        H  0.04873063  0.69949145  0.30573940     0.33600
O695        O  0.03434727  0.71345484  0.29000833    -1.28300
H696        H  0.45673392  0.69295397  0.19920054     0.33200
O697        O  0.46934673  0.70959285  0.21376830    -1.30000
O698        O  0.00286074  0.81867166  0.34220903    -0.85800
O699        O  0.00114027  0.79577675  0.14569277    -0.87300
O700        O  0.10401018  0.74392082  0.30468920    -0.85900
O701        O  0.39037847  0.74852464  0.29176558    -0.85900
O702        O  0.40517343  0.73933041  0.18120934    -0.85600
O703        O  0.10253657  0.73306057  0.19683067    -0.85400
O704        O  0.06757058  0.84171049  0.24022905    -0.85800
O705        O  0.43510641  0.84689854  0.23866731    -0.85300
O706        O  0.10636219  0.79485963  0.24232670    -0.86300
O707        O  0.39532217  0.80135014  0.23296723    -0.85500
O708        O  0.06367771  0.75572326  0.34835449    -0.85900
O709        O  0.06011543  0.73499503  0.15347851    -0.85600
O710        O  0.45246190  0.73822699  0.14308129    -0.85300
O711        O  0.42734156  0.75397865  0.33955096    -0.85700
O712        O  0.00489786  0.85639956  0.29514026    -0.86000
O713        O  0.00407909  0.84283856  0.18328248    -0.87300
Zr714      Zr  0.00430113  0.75722112  0.32117435     2.83100
Zr715      Zr  0.00104215  0.74133378  0.18091476     2.83500
Zr716      Zr  0.07132132  0.74235937  0.25050932     2.84100
Zr717      Zr  0.42846927  0.74735342  0.24051666     2.83400
Zr718      Zr  0.00521190  0.81994900  0.24293352     2.84200
O719        O  0.46517562  0.78239299  0.20593570    -1.07900
O720        O  0.04111485  0.78654028  0.28160126    -1.07400
C721        C  0.00290781  0.84986489  0.32829603     1.07300
C722        C  0.00201172  0.82919306  0.15228072     1.06700
C723        C  0.09561271  0.74947284  0.33686573     1.07500
C724        C  0.39615630  0.75052702  0.32498149     1.07800
C725        C  0.41872784  0.73710621  0.15007768     1.07400
C726        C  0.09271912  0.73246824  0.16466864     1.07000
C727        C  0.09939608  0.82783626  0.24017422     1.07400
C728        C  0.40317282  0.83421002  0.23503200     1.06900
H729        H  0.05481882  0.78993258  0.19541595     0.33600
O730        O  0.03905270  0.77822509  0.21172061    -1.29000
H731        H  0.43951785  0.80257542  0.28909475     0.33600
O732        O  0.45681489  0.78792139  0.27729788    -1.30400
O733        O  0.34873612  0.00601641  0.19367239    -0.85800
O734        O  0.14568086  0.99668778  0.20189552    -0.86000
O735        O  0.24956071  0.94629301  0.14966941    -0.87600
O736        O  0.26048806  0.56511198  0.15613477    -0.86400
O737        O  0.25811403  0.60403012  0.20236765    -0.86000
O738        O  0.25238295  0.90129532  0.19006784    -0.87300
O739        O  0.18611893  0.00088284  0.15664682    -0.85800
O740        O  0.30564134  0.00383479  0.15085784    -0.85400
Zr741      Zr  0.24672131  0.00281027  0.18014465     2.84300
O742        O  0.22525306  0.54136591  0.21627473    -1.07400
O743        O  0.28442396  0.96770955  0.21412776    -1.08100
C744        C  0.33854594  0.00496915  0.16170170     1.07300
C745        C  0.15407412  0.99871586  0.16929791     1.07300
C746        C  0.25143512  0.91341937  0.15818957     1.10200
C747        C  0.25806141  0.59645709  0.16900968     1.08000
H748        H  0.19913409  0.94934120  0.20167775     0.33600
O749        O  0.21423851  0.96388028  0.21621028    -1.28300
H750        H  0.31208983  0.55230668  0.21100466     0.33200
O751        O  0.29506104  0.53721888  0.22273231    -1.30000
O752        O  0.15370771  0.99330809  0.31415710    -0.85800
O753        O  0.35414464  0.00325708  0.30141000    -0.87300
O754        O  0.19290472  0.89779005  0.24768993    -0.85900
O755        O  0.20275881  0.60475238  0.25762907    -0.85900
O756        O  0.31990539  0.59421405  0.26329960    -0.85600
O757        O  0.31292304  0.90371656  0.24396410    -0.85400
O758        O  0.25725832  0.94309550  0.35008687    -0.85800
O759        O  0.25131969  0.54232647  0.35859991    -0.85300
O760        O  0.25396182  0.89963765  0.30815801    -0.86300
O761        O  0.25638058  0.59025395  0.32201399    -0.85500
O762        O  0.15019655  0.94053024  0.25438360    -0.85900
O763        O  0.35266773  0.94985324  0.24491293    -0.85600
O764        O  0.35855318  0.54773750  0.26897916    -0.85300
O765        O  0.15716374  0.56582698  0.24648343    -0.85700
O766        O  0.19920816  0.99515188  0.35441670    -0.86000
O767        O  0.31374624  0.00098342  0.34652604    -0.87300
Zr768      Zr  0.17918413  0.99621019  0.25547394     2.83100
Zr769      Zr  0.31958552  0.00460750  0.24874296     2.83500
Zr770      Zr  0.25217595  0.92772333  0.24919807     2.84100
Zr771      Zr  0.25845540  0.57153501  0.25902724     2.83400
Zr772      Zr  0.25379241  0.99880324  0.32133469     2.84200
O773        O  0.28706750  0.52973777  0.29417940    -1.07900
O774        O  0.21754196  0.96105400  0.28811003    -1.07400
C775        C  0.16605598  0.99374355  0.34581802     1.07300
C776        C  0.34586424  0.00198662  0.33399653     1.09900
C777        C  0.15997953  0.90858637  0.25037588     1.07500
C778        C  0.16955371  0.59700819  0.25240811     1.07800
C779        C  0.35150534  0.58063574  0.26718683     1.07400
C780        C  0.34491338  0.91689080  0.24316243     1.07000
C781        C  0.25594857  0.91083311  0.34043945     1.07400
C782        C  0.25416673  0.57548968  0.35294650     1.06900
H783        H  0.30504541  0.95065960  0.29731749     0.33600
O784        O  0.28852523  0.96468814  0.28380664    -1.29000
H785        H  0.20186809  0.54897621  0.30170885     0.33600
O786        O  0.21692119  0.53474479  0.28681884    -1.30400
O787        O  0.18572164  0.65331106  0.51073979    -0.85800
O788        O  0.18842983  0.84846189  0.49268889    -0.86000
O789        O  0.14227485  0.75389276  0.05162132    -0.87600
O790        O  0.14569682  0.75326272  0.45282378    -0.86400
O791        O  0.18461705  0.74784217  0.40657367    -0.86000
O792        O  0.18155232  0.74038486  0.09583376    -0.87300
O793        O  0.14802641  0.80483696  0.50517010    -0.85800
O794        O  0.14607519  0.69923103  0.50890734    -0.85400
Zr795      Zr  0.18067799  0.75153574  0.50598747     2.84300
O796        O  0.21213767  0.78316643  0.46341163    -1.07400
O797        O  0.20546325  0.71381334  0.03187907    -1.08100
C798        C  0.15349737  0.66653221  0.51073526     1.07300
C799        C  0.15613441  0.83671691  0.49842812     1.07300
C800        C  0.14977611  0.74583535  0.08346919     1.10200
C801        C  0.15296354  0.75138537  0.41989906     1.08000
H802        H  0.19789617  0.79964527  0.05489503     0.33600
O803        O  0.21247934  0.78527062  0.03968345    -1.28300
H804        H  0.19445915  0.69773001  0.45681097     0.33200
O805        O  0.21122851  0.71230082  0.46940262    -1.30000
O806        O  0.30983629  0.84832997  0.48922409    -0.85800
O807        O  0.30565930  0.64698268  0.50363819    -0.87300
O808        O  0.24517177  0.79608324  0.10757879    -0.85900
O809        O  0.24554510  0.79629338  0.39259955    -0.85900
O810        O  0.24181330  0.68767820  0.40301542    -0.85600
O811        O  0.24250992  0.68303881  0.09683381    -0.85400
O812        O  0.34426428  0.73634551  0.06298992    -0.85800
O813        O  0.34835534  0.74181690  0.43889126    -0.85300
O814        O  0.29901312  0.73706248  0.10368971    -0.86300
O815        O  0.30413851  0.74170066  0.39731148    -0.85500
O816        O  0.25353806  0.84240294  0.06967186    -0.85900
O817        O  0.24058813  0.64433974  0.05043977    -0.85600
O818        O  0.24541081  0.64616784  0.44690002    -0.85300
O819        O  0.24783730  0.84340486  0.43030246    -0.85700
O820        O  0.35091811  0.80338321  0.48943699    -0.86000
O821        O  0.34775135  0.69059227  0.49776870    -0.87300
Zr822      Zr  0.24988710  0.82235680  0.49178919     2.83100
Zr823      Zr  0.24770591  0.67747746  0.50520457     2.83500
Zr824      Zr  0.24250405  0.74234026  0.07242215     2.84100
Zr825      Zr  0.24583587  0.74455911  0.42892356     2.83400
Zr826      Zr  0.31992930  0.74796668  0.49436079     2.84200
O827        O  0.28214994  0.70963637  0.46449231    -1.07900
O828        O  0.28393102  0.77764444  0.04257427    -1.07400
C829        C  0.34216107  0.83605167  0.48906140     1.07300
C830        C  0.33828919  0.65820958  0.50083895     1.09900
C831        C  0.24962467  0.82911171  0.10083384     1.07500
C832        C  0.24669989  0.82938120  0.39914300     1.07800
C833        C  0.24311065  0.65586820  0.41399341     1.07400
C834        C  0.24279809  0.65166938  0.08380123     1.07000
C835        C  0.33229286  0.73554305  0.09487104     1.07400
C836        C  0.33744410  0.74097100  0.40709893     1.06900
H837        H  0.29010748  0.69048116  0.04814687     0.33600
O838        O  0.27650581  0.70720233  0.03458511    -1.29000
H839        H  0.29867045  0.79547723  0.44158672     0.33600
O840        O  0.28400076  0.78278454  0.45818617    -1.30400
C841        C  0.25404647  0.62622618  0.14369462    -0.15700
C842        C  0.24715141  0.62173379  0.10891012    -0.30900
H843        H  0.25561302  0.65267191  0.15431866     0.13300
H844        H  0.24543972  0.59529521  0.09828984     0.13900
C845        C  0.25250136  0.88841108  0.12822060    -0.15700
C846        C  0.24988289  0.85325722  0.13160384    -0.30900
H847        H  0.25467032  0.89971236  0.10208548     0.13300
H848        H  0.24708711  0.84181708  0.15761944     0.13900
C849        C  0.25660785  0.88607012  0.37012935    -0.15700
C850        C  0.24709515  0.85237583  0.36787331    -0.30900
H851        H  0.26362774  0.89683592  0.39567992     0.13300
H852        H  0.24015331  0.84119521  0.34250333     0.13900
C853        C  0.25450159  0.59765734  0.38511381    -0.15700
C854        C  0.24162985  0.63035746  0.38461027    -0.30900
H855        H  0.26415694  0.58651291  0.40962387     0.13300
H856        H  0.23168086  0.64045956  0.35971987     0.13900
C857        C  0.38201116  0.63423577  0.25049114    -0.15700
C858        C  0.38270542  0.60404406  0.26812538    -0.30900
H859        H  0.35757575  0.64194038  0.23702987     0.13300
H860        H  0.40701323  0.59545097  0.28117994     0.13900
C861        C  0.37244432  0.85846866  0.23447154    -0.15700
C862        C  0.37585566  0.89296907  0.24064074    -0.30900
H863        H  0.34601060  0.84725146  0.23059670     0.13300
H864        H  0.40230329  0.90420453  0.24439810     0.13900
C865        C  0.10854668  0.62181299  0.25670414    -0.15700
C866        C  0.14404130  0.62657869  0.25338810    -0.30900
H867        H  0.09780137  0.59537304  0.25904033     0.13300
H868        H  0.15493717  0.65302415  0.25205236     0.13900
C869        C  0.13117901  0.85083922  0.23848548    -0.15700
C870        C  0.12947937  0.88411886  0.24911699    -0.30900
H871        H  0.15675241  0.83957760  0.23097063     0.13300
H872        H  0.10368162  0.89467192  0.25704219     0.13900
C873        C  0.39386038  0.73407589  0.11988967    -0.15700
C874        C  0.35812164  0.73364725  0.12424678    -0.30900
H875        H  0.40511428  0.73401288  0.09357224     0.13300
H876        H  0.34707005  0.73371207  0.15065326     0.13900
C877        C  0.12206819  0.73021642  0.13947870    -0.15700
C878        C  0.11896091  0.74292537  0.10702402    -0.30900
H879        H  0.14795724  0.72149171  0.14909770     0.13300
H880        H  0.09320360  0.75226115  0.09764436     0.13900
C881        C  0.12566735  0.74798831  0.36156716    -0.15700
C882        C  0.12214632  0.75355950  0.39603297    -0.30900
H883        H  0.15178874  0.74164246  0.35076464     0.13300
H884        H  0.09604648  0.75947240  0.40710445     0.13900
C885        C  0.36411855  0.74865268  0.34768911    -0.15700
C886        C  0.36694898  0.73983077  0.38150444    -0.30900
H887        H  0.33805065  0.75429742  0.33645941     0.13300
H888        H  0.39331623  0.73391634  0.39202457     0.13900
C889        C  0.37867752  0.85063368  0.01279496    -0.15700
C890        C  0.37475080  0.88467135  0.00486837    -0.30900
H891        H  0.39875120  0.85007648  0.48345173     0.13300
H892        H  0.34829263  0.89471587  0.99862700     0.13900
C893        C  0.39011016  0.62833092  0.99502231    -0.15700
C894        C  0.35444486  0.62314344  0.99656761    -0.30900
H895        H  0.33951141  0.58718191  0.49074925     0.13300
H896        H  0.34365959  0.59665097  0.99776537     0.13900
C897        C  0.14061446  0.87613009  0.00500864    -0.15700
C898        C  0.10499035  0.87137931  0.00559137    -0.30900
H899        H  0.15190578  0.90244919  0.00476347     0.13300
H900        H  0.15269440  0.90617416  0.48756850     0.13900
C901        C  0.11242982  0.65104939  0.99367036    -0.15700
C902        C  0.11551682  0.61666787  0.98841137    -0.30900
H903        H  0.08639839  0.66257342  0.99899881     0.13300
H904        H  0.14952807  0.59696077  0.51363475     0.13900
C905        C  0.39361166  0.48948903  0.37395025    -0.15700
C906        C  0.35854344  0.48300270  0.37784907    -0.30900
H907        H  0.40461345  0.49458719  0.34800894     0.13300
H908        H  0.40269960  0.99804004  0.34685971     0.13900
C909        C  0.12918663  0.50233071  0.39205411    -0.15700
C910        C  0.12444097  0.50386372  0.35685160    -0.30900
H911        H  0.09436815  0.99440032  0.34340031     0.13300
H912        H  0.09770355  0.50657378  0.34604573     0.13900
C913        C  0.11623907  0.51560468  0.12267929    -0.15700
C914        C  0.15161336  0.51148182  0.11999728    -0.30900
H915        H  0.15560754  0.99216753  0.09971368     0.13300
H916        H  0.16354546  0.50705703  0.09434325     0.13900
C917        C  0.38388820  0.51967587  0.11873612    -0.15700
C918        C  0.38741648  0.51026724  0.15229371    -0.30900
H919        H  0.33827656  0.99728257  0.09126394     0.13300
H920        H  0.41355463  0.50356993  0.16279530     0.13900
C921        C  0.99880396  0.64800637  0.38382199    -0.15700
C922        C  0.00293649  0.61298059  0.38139611    -0.30900
H923        H  0.48830159  0.65931652  0.40601838     0.13300
H924        H  0.50223250  0.60023200  0.35365996     0.13900
C925        C  0.99427125  0.87817208  0.38621208    -0.15700
C926        C  0.00017746  0.88104128  0.35157883    -0.30900
H927        H  0.99143287  0.85215443  0.39768981     0.13300
H928        H  0.49001983  0.90576357  0.34165256     0.13900
C929        C  0.99947953  0.88898935  0.12617241    -0.15700
C930        C  0.00023036  0.85374151  0.12186030    -0.30900
H931        H  0.49290249  0.90399076  0.15419694     0.13300
H932        H  0.99941954  0.84265960  0.09557492     0.13900
C933        C  0.99495963  0.62523674  0.10909902    -0.15700
C934        C  0.99623580  0.62093282  0.14450700    -0.30900
H935        H  0.51112176  0.65423722  0.09582636     0.13300
H936        H  0.99735582  0.59458259  0.15543771     0.13900
O937        O  0.99000634  0.54899661  0.60156775    -0.85800
O938        O  0.99727523  0.54403331  0.89545115    -0.86000
O939        O  0.05916064  0.59635201  0.50736826    -0.87600
O940        O  0.42888455  0.58973433  0.49942174    -0.86400
O941        O  0.39133542  0.54253699  0.49249698    -0.86000
O942        O  0.10183463  0.55303546  0.51117370    -0.87300
O943        O  0.99449024  0.59123145  0.93312836    -0.85800
O944        O  0.99315670  0.59461346  0.56200792    -0.85400
Zr945      Zr  0.99813103  0.56841479  0.50163678     2.84300
O946        O  0.46216979  0.53720719  0.96249515    -1.07400
O947        O  0.03108114  0.53146009  0.53864264    -1.08100
C948        C  0.99082490  0.58209604  0.59391088     1.07300
C949        C  0.99545911  0.57749090  0.90176385     1.07300
C950        C  0.09212824  0.58516188  0.51049322     1.10200
C951        C  0.39747397  0.57563131  0.49576009     1.08000
H952        H  0.04827545  0.54530448  0.94709659     0.33600
O953        O  0.03417281  0.53152057  0.96326668    -1.28300
H954        H  0.44047010  0.54160992  0.54809348     0.33200
O955        O  0.45767908  0.52877706  0.53421333    -1.30000
O956        O  0.99681121  0.93726852  0.90661392    -0.85800
O957        O  0.00691145  0.94215180  0.59607450    -0.87300
O958        O  0.10366897  0.49513500  0.94727910    -0.85900
O959        O  0.38975164  0.50781444  0.95253624    -0.85900
O960        O  0.39404215  0.49033000  0.54803131    -0.85600
O961        O  0.09530976  0.50048620  0.56559784    -0.85400
O962        O  0.06256067  0.90595197  0.49502120    -0.85800
O963        O  0.43166325  0.90464791  0.50026375    -0.85300
O964        O  0.10387937  0.95035423  0.48965351    -0.86300
O965        O  0.39256604  0.95073563  0.50301130    -0.85500
O966        O  0.06179216  0.48957280  0.90341325    -0.85900
O967        O  0.04812610  0.49673220  0.60404095    -0.85600
O968        O  0.43337796  0.49061560  0.59424139    -0.85300
O969        O  0.42795526  0.49623152  0.90690824    -0.85700
O970        O  0.99042186  0.89830446  0.95244916    -0.86000
O971        O  0.00306579  0.90075826  0.55218398    -0.87300
Zr972      Zr  0.00113112  0.48989995  0.93092453     2.83100
Zr973      Zr  0.99326423  0.49325367  0.56974441     2.83500
Zr974      Zr  0.07219258  0.49856347  0.50576248     2.84100
Zr975      Zr  0.42915017  0.49114417  0.49453958     2.83400
Zr976      Zr  0.00078132  0.93174438  0.49797970     2.84200
O977        O  0.46165110  0.96629838  0.53840764    -1.07900
O978        O  0.03136944  0.96005091  0.96795211    -1.07400
C979        C  0.99364351  0.90561383  0.91955794     1.07300
C980        C  0.00478885  0.90975109  0.58452821     1.09900
C981        C  0.09460750  0.49135417  0.91481824     1.07500
C982        C  0.39646276  0.50179521  0.92007774     1.07800
C983        C  0.40165905  0.49056723  0.58100270     1.07400
C984        C  0.08170859  0.49965372  0.59682247     1.07000
C985        C  0.09518937  0.91795845  0.49208349     1.07400
C986        C  0.39983823  0.91786314  0.50108655     1.06900
H987        H  0.05637305  0.95343841  0.54287345     0.33600
O988        O  0.04000411  0.96791292  0.52967685    -1.29000
H989        H  0.44810501  0.94273890  0.95150685     0.33600
O990        O  0.46184469  0.95888470  0.96567146    -1.30400
O991        O  0.99129434  0.69907242  0.64697164    -0.85800
O992        O  0.00246898  0.69456377  0.85048500    -0.86000
O993        O  0.04727037  0.64508464  0.74571761    -0.87600
O994        O  0.44352434  0.65259103  0.74594091    -0.86400
O995        O  0.40106169  0.69607405  0.74336220    -0.86000
O996        O  0.09374335  0.68425317  0.74255120    -0.87300
O997        O  0.99521665  0.65122906  0.80870842    -0.85800
O998        O  0.99085521  0.65383502  0.68733680    -0.85400
Zr999      Zr  0.99259804  0.67932749  0.74852619     2.84300
O1000       O  0.46466885  0.71565880  0.78389190    -1.07400
O1001       O  0.02767297  0.71371444  0.71009361    -1.08100
C1002       C  0.99083233  0.66607612  0.65516135     1.07300
C1003       C  0.99917267  0.66199642  0.84116198     1.07300
C1004       C  0.08078162  0.65274792  0.74396823     1.10200
C1005       C  0.41070392  0.66380094  0.74367273     1.08000
H1006       H  0.04758574  0.69716191  0.79627360     0.33600
O1007       O  0.03264388  0.71273907  0.78270402    -1.28300
H1008       H  0.45492020  0.70415970  0.69672338     0.33200
O1009       O  0.46916941  0.71833797  0.71242877    -1.30000
O1010       O  0.00399601  0.81190978  0.84968034    -0.85800
O1011       O  0.99901891  0.81726768  0.65402061    -0.87300
O1012       O  0.10400735  0.74354416  0.79732870    -0.85900
O1013       O  0.39557849  0.75008276  0.80122584    -0.85900
O1014       O  0.40245357  0.75317504  0.69140684    -0.85600
O1015       O  0.09469572  0.74584650  0.68419735    -0.85400
O1016       O  0.06870956  0.84096838  0.74812314    -0.85800
O1017       O  0.43720164  0.85040238  0.74895920    -0.85300
O1018       O  0.10706096  0.79415482  0.74286774    -0.86300
O1019       O  0.39718956  0.80518243  0.74331463    -0.85500
O1020       O  0.06531508  0.75163294  0.84359899    -0.85900
O1021       O  0.04918876  0.75224044  0.64428761    -0.85600
O1022       O  0.44567642  0.75772747  0.64878101    -0.85300
O1023       O  0.43468086  0.75042631  0.84754124    -0.85700
O1024       O  0.00819358  0.85312352  0.80581264    -0.86000
O1025       O  0.00683685  0.85663340  0.69910817    -0.87300
Zr1026     Zr  0.00294836  0.75195589  0.82156216     2.83100
Zr1027     Zr  0.99402287  0.75534178  0.67768370     2.83500
Zr1028     Zr  0.06916864  0.74387553  0.74380916     2.84100
Zr1029     Zr  0.43059006  0.75152796  0.74752936     2.83400
Zr1030     Zr  0.00496781  0.82212347  0.75101625     2.84200
O1031       O  0.46546345  0.78944457  0.71363532    -1.07900
O1032       O  0.04026165  0.78286314  0.78300488    -1.07400
C1033       C  0.00597577  0.84427122  0.83826917     1.07300
C1034       C  0.00383884  0.84900523  0.66653593     1.06700
C1035       C  0.09708959  0.74798004  0.83013917     1.07500
C1036       C  0.40272505  0.74975398  0.83431032     1.07800
C1037       C  0.41256482  0.75618181  0.65942997     1.07400
C1038       C  0.08247754  0.74916867  0.65251149     1.07000
C1039       C  0.10040655  0.82704909  0.74504103     1.07400
C1040       C  0.40519245  0.83787073  0.74525008     1.06900
H1041       H  0.05095793  0.79886844  0.69733457     0.33600
O1042       O  0.03547041  0.78507463  0.71222378    -1.29000
H1043       H  0.44364972  0.80232877  0.80013448     0.33600
O1044       O  0.46016250  0.78846015  0.78649575    -1.30400
O1045       O  0.35464209  0.00527905  0.70546266    -0.85800
O1046       O  0.15160773  0.99713861  0.68906269    -0.86000
O1047       O  0.25832890  0.94092869  0.65046930    -0.87600
O1048       O  0.25682427  0.55717819  0.64795424    -0.86400
O1049       O  0.25477882  0.60060314  0.68996405    -0.86000
O1050       O  0.25719727  0.89896110  0.69404066    -0.87300
O1051       O  0.19548715  0.99948766  0.64695898    -0.85800
O1052       O  0.31692336  0.00324178  0.65783346    -0.85400
Zr1053     Zr  0.25393674  0.00013797  0.67840705     2.84300
O1054       O  0.22013554  0.53950768  0.71127187    -1.07400
O1055       O  0.28803641  0.96682188  0.71813221    -1.08100
C1056       C  0.34849194  0.00469495  0.67224270     1.07300
C1057       C  0.16226050  0.99845747  0.65716623     1.07300
C1058       C  0.25888272  0.90852864  0.66163856     1.10200
C1059       C  0.25545052  0.58945239  0.65754832     1.08000
H1060       H  0.20366314  0.94759197  0.69589749     0.33600
O1061       O  0.21719429  0.96255283  0.71149467    -1.28300
H1062       H  0.30749167  0.54975197  0.70040416     0.33200
O1063       O  0.29091679  0.53594761  0.71416276    -1.30000
O1064       O  0.14137213  0.99105238  0.79715180    -0.85800
O1065       O  0.34185149  0.00307677  0.81727924    -0.87300
O1066       O  0.19224718  0.89839009  0.74598973    -0.85900
O1067       O  0.20000037  0.60515915  0.74920863    -0.85900
O1068       O  0.31732468  0.59697323  0.75005697    -0.85600
O1069       O  0.31273271  0.90483003  0.75253340    -0.85400
O1070       O  0.24312316  0.93818438  0.85016375    -0.85800
O1071       O  0.24795588  0.55357113  0.84932312    -0.85300
O1072       O  0.24830917  0.89747230  0.80584162    -0.86300
O1073       O  0.25329562  0.59891083  0.80951411    -0.85500
O1074       O  0.14930060  0.94111002  0.74157618    -0.85900
O1075       O  0.35217356  0.95073942  0.75852555    -0.85600
O1076       O  0.35590310  0.55032176  0.75453562    -0.85300
O1077       O  0.15422886  0.56502655  0.74532145    -0.85700
O1078       O  0.17940707  0.99263912  0.84427726    -0.86000
O1079       O  0.29544721  0.99959595  0.85662284    -0.87300
Zr1080     Zr  0.17832128  0.99619177  0.74573429     2.83100
Zr1081     Zr  0.31793031  0.00401030  0.75764330     2.83500
Zr1082     Zr  0.25128295  0.92819501  0.74995788     2.84100
Zr1083     Zr  0.25591586  0.57280030  0.74955866     2.83400
Zr1084     Zr  0.24092908  0.99689794  0.82261768     2.84200
O1085       O  0.28668773  0.53342662  0.78634989    -1.07900
O1086       O  0.21058530  0.96032561  0.78360374    -1.07400
C1087       C  0.14793779  0.99053442  0.83019818     1.07300
C1088       C  0.32885797  0.00132425  0.84871127     1.09900
C1089       C  0.15935493  0.90911162  0.74305353     1.07500
C1090       C  0.16663780  0.59679431  0.74734351     1.07800
C1091       C  0.34909313  0.58333789  0.75258024     1.07400
C1092       C  0.34462534  0.91797648  0.75567660     1.07000
C1093       C  0.24576230  0.90623171  0.83849132     1.07400
C1094       C  0.25020664  0.58651060  0.84130371     1.06900
H1095       H  0.29666464  0.95063613  0.80445148     0.33600
O1096       O  0.28196484  0.96478499  0.78915136    -1.29000
H1097       H  0.20105207  0.55168566  0.79674896     0.33600
O1098       O  0.21616882  0.53714675  0.78222527    -1.30400
O1099       O  0.17598143  0.65919475  0.99304282    -0.85800
O1100       O  0.19905781  0.85400319  0.00879156    -0.86000
O1101       O  0.15602339  0.75110367  0.56544733    -0.87600
O1102       O  0.14772443  0.76335472  0.94235888    -0.86400
O1103       O  0.19097565  0.76086600  0.89967541    -0.86000
O1104       O  0.20237355  0.75695826  0.60434999    -0.87300
O1105       O  0.15254400  0.81561446  0.00061662    -0.85800
O1106       O  0.13823725  0.70667957  0.99561680    -0.85400
Zr1107     Zr  0.17656681  0.75687331  0.99847564     2.84300
O1108       O  0.21683316  0.79200206  0.96811078    -1.07400
O1109       O  0.21856302  0.71873966  0.54112018    -1.08100
C1110       C  0.14444680  0.67363746  0.99395782     1.07300
C1111       C  0.16565005  0.84660206  0.00482159     1.07300
C1112       C  0.16888676  0.75344653  0.59686958     1.10200
C1113       C  0.15796633  0.76315740  0.91018073     1.08000
H1114       H  0.20420964  0.80660822  0.54942375     0.33600
O1115       O  0.21816781  0.79093310  0.53495573    -1.28300
H1116       H  0.19334209  0.70878579  0.94456391     0.33200
O1117       O  0.20923981  0.72057037  0.96073001    -1.30000
O1118       O  0.31594075  0.84051495  0.01220631    -0.85800
O1119       O  0.29525293  0.64471998  0.99389024    -0.87300
O1120       O  0.26034243  0.81942444  0.59131608    -0.85900
O1121       O  0.25051031  0.81751924  0.90857403    -0.85900
O1122       O  0.24734903  0.70265879  0.89503580    -0.85600
O1123       O  0.25824285  0.70509783  0.60511096    -0.85400
O1124       O  0.35809349  0.75126474  0.54469142    -0.85800
O1125       O  0.35018893  0.74297733  0.94983933    -0.85300
O1126       O  0.32028114  0.75790160  0.59149471    -0.86300
O1127       O  0.31064566  0.75258668  0.90466133    -0.85500
O1128       O  0.25560951  0.85770344  0.54470318    -0.85900
O1129       O  0.25045912  0.65806961  0.56760126    -0.85600
O1130       O  0.24180237  0.65574501  0.93288528    -0.85300
O1131       O  0.25419986  0.85533452  0.95557047    -0.85700
O1132       O  0.35455070  0.79373995  0.01057486    -0.86000
O1133       O  0.34164591  0.68365287  0.00083954    -0.87300
Zr1134     Zr  0.25402062  0.81984635  0.00910557     2.83100
Zr1135     Zr  0.23927706  0.67804485  0.99435354     2.83500
Zr1136     Zr  0.25756129  0.75803322  0.57000627     2.84100
Zr1137     Zr  0.24972380  0.75639675  0.92989503     2.83400
Zr1138     Zr  0.31726884  0.74232141  0.00464035     2.84200
O1139       O  0.27970459  0.71434022  0.96419994    -1.07900
O1140       O  0.28885287  0.78922426  0.52760661    -1.07400
C1141       C  0.34763439  0.82678225  0.01211064     1.07300
C1142       C  0.32879160  0.65247746  0.99694741     1.09900
C1143       C  0.25902329  0.85079572  0.57773986     1.07500
C1144       C  0.25180976  0.84871274  0.92234081     1.07800
C1145       C  0.24485121  0.66942635  0.90161628     1.07400
C1146       C  0.25449882  0.67206541  0.59866095     1.07000
C1147       C  0.35191827  0.75487765  0.57756262     1.07400
C1148       C  0.34255870  0.74734444  0.91713934     1.06900
H1149       H  0.30310418  0.70274956  0.54975004     0.33600
O1150       O  0.28703233  0.71620815  0.53515815    -1.29000
H1151       H  0.30445883  0.79903019  0.95799625     0.33600
O1152       O  0.28751410  0.78465573  0.97058156    -1.30400
C1153       C  0.25431979  0.61408885  0.62752110    -0.15700
C1154       C  0.25496904  0.64906048  0.63014363    -0.30900
H1155       H  0.25333303  0.60235109  0.60149052     0.13300
H1156       H  0.25644116  0.66119521  0.65594263     0.13900
C1157       C  0.26080247  0.87870176  0.63654737    -0.15700
C1158       C  0.26068768  0.88186150  0.60144801    -0.30900
H1159       H  0.26084261  0.85248675  0.64792918     0.13300
H1160       H  0.26026466  0.90789602  0.58973003     0.13900
C1161       C  0.24621204  0.87637672  0.86355111    -0.15700
C1162       C  0.25019599  0.87970978  0.89851678    -0.30900
H1163       H  0.24440070  0.85020331  0.85227274     0.13300
H1164       H  0.25237045  0.90575953  0.91000876     0.13900
C1165       C  0.24910604  0.61080856  0.87211952    -0.15700
C1166       C  0.24569627  0.64595689  0.87007502    -0.30900
H1167       H  0.25064867  0.59879823  0.89797807     0.13300
H1168       H  0.24417322  0.65820646  0.84432615     0.13900
C1169       C  0.38035030  0.63915298  0.74100786    -0.15700
C1170       C  0.38097465  0.60637991  0.75338152    -0.30900
H1171       H  0.35540203  0.64949317  0.73060424     0.13300
H1172       H  0.40576743  0.59579388  0.76382691     0.13900
C1173       C  0.37446156  0.86183894  0.74354192    -0.15700
C1174       C  0.37577964  0.89447152  0.75620342    -0.30900
H1175       H  0.34941545  0.85161061  0.73326558     0.13300
H1176       H  0.40080932  0.90472331  0.76649747     0.13900
C1177       C  0.10578351  0.62262728  0.74391904    -0.15700
C1178       C  0.14128952  0.62662419  0.74740343    -0.30900
H1179       H  0.09451175  0.59640192  0.74165534     0.13300
H1180       H  0.15242460  0.65287051  0.75015901     0.13900
C1181       C  0.13228004  0.84980679  0.74408983    -0.15700
C1182       C  0.12921392  0.88448012  0.74182888    -0.30900
H1183       H  0.15861980  0.83781287  0.74535978     0.13300
H1184       H  0.10265823  0.89597509  0.73992603     0.13900
C1185       C  0.38208863  0.75839227  0.63485501    -0.15700
C1186       C  0.38424788  0.75490428  0.60011481    -0.30900
H1187       H  0.35581347  0.76171064  0.64664048     0.13300
H1188       H  0.41021333  0.75096834  0.58791624     0.13900
C1189       C  0.10801939  0.74983911  0.62275590    -0.15700
C1190       C  0.14369689  0.75195942  0.62696395    -0.30900
H1191       H  0.09685223  0.74953099  0.59640128     0.13300
H1192       H  0.15486326  0.75295615  0.65328784     0.13900
C1193       C  0.12876738  0.74877890  0.85350231    -0.15700
C1194       C  0.12834364  0.76519067  0.88457405    -0.30900
H1195       H  0.15313783  0.73597884  0.84467859     0.13300
H1196       H  0.10375419  0.77769343  0.89325919     0.13900
C1197       C  0.37117594  0.74905586  0.85802097    -0.15700
C1198       C  0.37381572  0.74672611  0.89308832    -0.30900
H1199       H  0.34485328  0.75070754  0.84606636     0.13300
H1200       H  0.40014975  0.74448871  0.90494471     0.13900
C1201       C  0.37240266  0.86059833  0.48933646    -0.15700
C1202       C  0.36892468  0.89416146  0.49905516    -0.30900
H1203       H  0.40503659  0.83991614  0.01818313     0.13300
H1204       H  0.34264988  0.90475437  0.50508500     0.13900
C1205       C  0.36561340  0.59874809  0.49565567    -0.15700
C1206       C  0.36846807  0.63331538  0.50154139    -0.30900
H1207       H  0.40085244  0.65479516  0.99302441     0.13300
H1208       H  0.39480008  0.64461165  0.50584226     0.13900
C1209       C  0.12455713  0.86002249  0.49742712    -0.15700
C1210       C  0.12654990  0.89434422  0.49167204    -0.30900
H1211       H  0.09846886  0.84821998  0.50194796     0.13300
H1212       H  0.09366216  0.84508350  0.00646843     0.13900
C1213       C  0.12132054  0.64386390  0.51198346    -0.15700
C1214       C  0.12321199  0.60909277  0.51263242    -0.30900
H1215       H  0.09520137  0.65634366  0.51101972     0.13300
H1216       H  0.14185835  0.60569051  0.98333744     0.13900
C1217       C  0.36519259  0.50121546  0.89667676    -0.15700
C1218       C  0.36803985  0.49009004  0.86363881    -0.30900
H1219       H  0.33960945  0.51039103  0.90663668     0.13300
H1220       H  0.34320687  0.00672589  0.90434323     0.13900
C1221       C  0.12534029  0.48969731  0.88980043    -0.15700
C1222       C  0.12240748  0.49356087  0.85480307    -0.30900
H1223       H  0.14654540  0.97659603  0.89814579     0.13300
H1224       H  0.09593466  0.49617193  0.84336358     0.13900
C1225       C  0.10621066  0.50200330  0.62707543    -0.15700
C1226       C  0.14137216  0.50778773  0.62308601    -0.30900
H1227       H  0.16131800  0.00427739  0.58535340     0.13300
H1228       H  0.15252603  0.51102816  0.59691092     0.13900
C1229       C  0.37152416  0.49193677  0.60538231    -0.15700
C1230       C  0.37676723  0.49501008  0.64002858    -0.30900
H1231       H  0.35270211  0.01216732  0.60303250     0.13300
H1232       H  0.40367831  0.49556403  0.65080993     0.13900
C1233       C  0.00034525  0.63638320  0.87147100    -0.15700
C1234       C  0.99435571  0.60132033  0.86996971    -0.30900
H1235       H  0.50038066  0.65003554  0.89664674     0.13300
H1236       H  0.49510591  0.59131422  0.84223498     0.13900
C1237       C  0.99415268  0.87412007  0.89604453    -0.15700
C1238       C  0.00540033  0.87503831  0.86262753    -0.30900
H1239       H  0.98637984  0.84897415  0.90723932     0.13300
H1240       H  0.49071106  0.89895776  0.85548700     0.13900
C1241       C  0.00349356  0.87884189  0.60846225    -0.15700
C1242       C  0.00632205  0.88036800  0.64326242    -0.30900
H1243       H  0.48417061  0.85423305  0.60142758     0.13300
H1244       H  0.01040126  0.90585609  0.65553332     0.13900
C1245       C  0.98923436  0.60629377  0.62532382    -0.15700
C1246       C  0.99084552  0.64169654  0.62387509    -0.30900
H1247       H  0.48985861  0.59637262  0.65177865     0.13300
H1248       H  0.99273282  0.65389125  0.59812286     0.13900
O1249       O  0.49121165  0.06500741  0.09590651    -0.85800
O1250       O  0.49782563  0.05222896  0.39646102    -0.86000
O1251       O  0.54904078  0.10201860  0.99399258    -0.87600
O1252       O  0.96070521  0.10767190  0.00174197    -0.86400
O1253       O  0.91189452  0.07112530  0.00336193    -0.86000
O1254       O  0.59528926  0.06250071  0.99986631    -0.87300
O1255       O  0.50295910  0.09699909  0.43667005    -0.85800
O1256       O  0.49392287  0.10334401  0.04940117    -0.85400
Zr1257     Zr  0.49376090  0.06968874  0.99436081     2.84300
O1258       O  0.96100473  0.03720328  0.46342768    -1.07400
O1259       O  0.52857415  0.03757282  0.03408752    -1.08100
C1260       C  0.49363329  0.09622425  0.08264969     1.07300
C1261       C  0.50044267  0.08504342  0.40477364     1.07300
C1262       C  0.58240871  0.09434482  0.99631498     1.10200
C1263       C  0.92682981  0.10191663  0.00224386     1.08000
H1264       H  0.55085935  0.04252410  0.44458789     0.33600
O1265       O  0.53545342  0.02963538  0.46036598    -1.28300
H1266       H  0.96086250  0.05834135  0.05337293     0.33200
O1267       O  0.97319524  0.04125521  0.03905617    -1.30000
O1268       O  0.50642826  0.44034666  0.39887715    -0.85800
O1269       O  0.49789077  0.45145851  0.10389863    -0.87300
O1270       O  0.59540447  0.98812872  0.43480085    -0.85900
O1271       O  0.89377115  0.00645353  0.45068027    -0.85900
O1272       O  0.90660744  0.01520333  0.06591657    -0.85600
O1273       O  0.59295893  0.00660758  0.06613997    -0.85400
O1274       O  0.54250875  0.39428984  0.00654032    -0.85800
O1275       O  0.95504051  0.39197473  0.01294561    -0.85300
O1276       O  0.59036923  0.43088533  0.99692413    -0.86300
O1277       O  0.90771310  0.43032730  0.01231648    -0.85500
O1278       O  0.54950808  0.98946746  0.39466022    -0.85900
O1279       O  0.54524041  0.01140470  0.10421153    -0.85600
O1280       O  0.95201425  0.01138858  0.10651383    -0.85300
O1281       O  0.93268337  0.00256666  0.40416319    -0.85700
O1282       O  0.50999660  0.39826983  0.44182832    -0.86000
O1283       O  0.48986538  0.40572262  0.06538480    -0.87300
Zr1284     Zr  0.49479553  0.99612923  0.42738451     2.83100
Zr1285     Zr  0.49016392  0.00575429  0.07113410     2.83500
Zr1286     Zr  0.56995752  0.00106112  0.00481456     2.84100
Zr1287     Zr  0.93125627  0.00944785  0.00626190     2.83400
Zr1288     Zr  0.48903178  0.43066883  0.00685642     2.84200
O1289       O  0.96952088  0.46220049  0.04263718    -1.07900
O1290       O  0.54377404  0.46799627  0.46854178    -1.07400
C1291       C  0.50748476  0.40780819  0.40943027     1.07300
C1292       C  0.49359094  0.41839961  0.09656405     1.09900
C1293       C  0.58280501  0.98762401  0.40286926     1.07500
C1294       C  0.90114617  0.00555780  0.41753184     1.07800
C1295       C  0.91905520  0.01494314  0.09775477     1.07400
C1296       C  0.57894641  0.01014745  0.09737855     1.07000
C1297       C  0.57617595  0.40004959  0.00205954     1.07400
C1298       C  0.92153002  0.39909143  0.01394420     1.06900
H1299       H  0.54658466  0.45021189  0.05038603     0.33600
O1300       O  0.53206863  0.46499517  0.03549190    -1.29000
H1301       H  0.95886475  0.44291720  0.44255890     0.33600
O1302       O  0.97097154  0.45828116  0.45885770    -1.30400
O1303       O  0.50725606  0.18483442  0.15278081    -0.85800
O1304       O  0.49235941  0.20196294  0.35254218    -0.86000
O1305       O  0.56452808  0.15602549  0.25860326    -0.87600
O1306       O  0.94799352  0.15233724  0.26096156    -0.86400
O1307       O  0.90364405  0.19412782  0.25977547    -0.86000
O1308       O  0.60359119  0.20250884  0.26150181    -0.87300
O1309       O  0.50178308  0.15581452  0.31471773    -0.85800
O1310       O  0.50813934  0.14605001  0.19907942    -0.85400
Zr1311     Zr  0.50444283  0.17943855  0.25423493     2.84300
O1312       O  0.97098229  0.22085922  0.29360843    -1.07400
O1313       O  0.54065558  0.21537101  0.21899913    -1.08100
C1314       C  0.50738215  0.15340989  0.16586256     1.07300
C1315       C  0.49734255  0.16898289  0.34591065     1.07300
C1316       C  0.59619861  0.16920162  0.26106783     1.10200
C1317       C  0.91502596  0.16178222  0.26018661     1.08000
H1318       H  0.54692075  0.20943322  0.30687815     0.33600
O1319       O  0.53236062  0.22139299  0.28973781    -1.28300
H1320       H  0.95057833  0.19854010  0.21040611     0.33200
O1321       O  0.96611315  0.21442528  0.22292707    -1.30000
O1322       O  0.48963679  0.31738656  0.34077761    -0.85800
O1323       O  0.50134192  0.29966548  0.14358700    -0.87300
O1324       O  0.58916299  0.26347892  0.31594453    -0.85900
O1325       O  0.90872459  0.25511354  0.31849144    -0.85900
O1326       O  0.89683228  0.24976785  0.20602680    -0.85600
O1327       O  0.60426416  0.25446096  0.20065901    -0.85400
O1328       O  0.54158516  0.35575554  0.24437675    -0.85800
O1329       O  0.95079493  0.35362490  0.24689502    -0.85300
O1330       O  0.58910232  0.31847113  0.25310271    -0.86300
O1331       O  0.90567935  0.31310350  0.25353224    -0.85500
O1332       O  0.54140843  0.26296739  0.35398744    -0.85900
O1333       O  0.56605419  0.24630235  0.15412018    -0.85600
O1334       O  0.93595293  0.24316304  0.15975116    -0.85300
O1335       O  0.95498221  0.26152585  0.35763247    -0.85700
O1336       O  0.48631129  0.35546826  0.29416922    -0.86000
O1337       O  0.49142077  0.34475062  0.18238222    -0.87300
Zr1338     Zr  0.48908254  0.25623774  0.31799963     2.83100
Zr1339     Zr  0.50535910  0.24444367  0.17711105     2.83500
Zr1340     Zr  0.56879123  0.25712065  0.25480633     2.84100
Zr1341     Zr  0.93237831  0.25322982  0.25813749     2.83400
Zr1342     Zr  0.48928407  0.31971010  0.24107724     2.84200
O1343       O  0.96663644  0.28406731  0.21628786    -1.07900
O1344       O  0.52516297  0.29125778  0.28244155    -1.07400
C1345       C  0.48887247  0.34880471  0.32731787     1.07300
C1346       C  0.49601314  0.33246299  0.15112589     1.06700
C1347       C  0.57499716  0.26429546  0.34710251     1.07500
C1348       C  0.92168071  0.25809466  0.34999358     1.07800
C1349       C  0.90389538  0.24580659  0.17329685     1.07400
C1350       C  0.59754794  0.25002197  0.16759983     1.07000
C1351       C  0.57487381  0.34933833  0.24905089     1.07400
C1352       C  0.91778565  0.34504519  0.24990339     1.06900
H1353       H  0.54823765  0.30109419  0.19844191     0.33600
O1354       O  0.53344270  0.28610567  0.21280217    -1.29000
H1355       H  0.95772356  0.30820774  0.30055537     0.33600
O1356       O  0.97138115  0.29190330  0.28652423    -1.30400
O1357       O  0.84357574  0.49500304  0.18725879    -0.85800
O1358       O  0.64200465  0.50184765  0.19630471    -0.86000
O1359       O  0.74221582  0.45059164  0.14473450    -0.87600
O1360       O  0.74099275  0.06420152  0.15318196    -0.86400
O1361       O  0.73831533  0.10463267  0.19789118    -0.86000
O1362       O  0.74659571  0.40445110  0.18319802    -0.87300
O1363       O  0.68377697  0.50644909  0.15245460    -0.85800
O1364       O  0.79803174  0.50333906  0.14748291    -0.85400
Zr1365     Zr  0.74313042  0.50467443  0.17961662     2.84300
O1366       O  0.70982487  0.03605204  0.21737755    -1.07400
O1367       O  0.78110124  0.46546321  0.20943282    -1.08100
C1368       C  0.83095191  0.49847557  0.15550607     1.07300
C1369       C  0.65124507  0.50475035  0.16390494     1.07300
C1370       C  0.74429559  0.41745918  0.15202135     1.10200
C1371       C  0.73855248  0.09601785  0.16507444     1.08000
H1372       H  0.69268672  0.45168921  0.19561204     0.33600
O1373       O  0.70799701  0.46507584  0.21104986    -1.28300
H1374       H  0.79414047  0.06145382  0.19922331     0.33200
O1375       O  0.78183554  0.04458240  0.21380891    -1.30000
O1376       O  0.64426779  0.49297490  0.30651733    -0.85800
O1377       O  0.84842820  0.49116613  0.30697444    -0.87300
O1378       O  0.69037528  0.39746534  0.24194685    -0.85900
O1379       O  0.68393759  0.09717486  0.25762152    -0.85900
O1380       O  0.79671003  0.10989732  0.25532835    -0.85600
O1381       O  0.80045117  0.39489187  0.24206656    -0.85400
O1382       O  0.74434469  0.42977748  0.34149815    -0.85800
O1383       O  0.75045709  0.05131259  0.35347120    -0.85300
O1384       O  0.74397140  0.39168508  0.29488105    -0.86300
O1385       O  0.74460103  0.09644712  0.31402735    -0.85500
O1386       O  0.64642915  0.43857303  0.25072860    -0.85900
O1387       O  0.84601567  0.43502483  0.24620086    -0.85600
O1388       O  0.84485300  0.07286204  0.24997170    -0.85300
O1389       O  0.64458202  0.05080484  0.25560662    -0.85700
O1390       O  0.68773507  0.48914243  0.34884861    -0.86000
O1391       O  0.80373398  0.48720314  0.34830621    -0.87300
Zr1392     Zr  0.67420733  0.49732523  0.25095743     2.83100
Zr1393     Zr  0.81924205  0.49487992  0.24818826     2.83500
Zr1394     Zr  0.74582416  0.42761244  0.24242389     2.84100
Zr1395     Zr  0.74369752  0.07333309  0.25354020     2.83400
Zr1396     Zr  0.74625659  0.48995764  0.31967261     2.84200
O1397       O  0.78597285  0.04087869  0.28453340    -1.07900
O1398       O  0.70975741  0.45805705  0.28206847    -1.07400
C1399       C  0.65479502  0.49065217  0.33853074     1.07300
C1400       C  0.83682587  0.48848824  0.33916039     1.09900
C1401       C  0.65793458  0.40662362  0.24702564     1.07500
C1402       C  0.65216381  0.08403567  0.25753158     1.07800
C1403       C  0.83051801  0.10372072  0.25382072     1.07400
C1404       C  0.83358953  0.40308843  0.24433641     1.07000
C1405       C  0.74372932  0.39863437  0.32795418     1.07400
C1406       C  0.74707857  0.08381986  0.34560813     1.06900
H1407       H  0.79699017  0.44144307  0.29474762     0.33600
O1408       O  0.78265487  0.45773856  0.28137571    -1.29000
H1409       H  0.69754993  0.04468131  0.30421976     0.33600
O1410       O  0.71291348  0.03253584  0.28787739    -1.30400
O1411       O  0.68440713  0.15151772  0.49108261    -0.85800
O1412       O  0.68791685  0.34763023  0.50029763    -0.86000
O1413       O  0.64740325  0.24556937  0.05097334    -0.87600
O1414       O  0.64635395  0.25436708  0.43635233    -0.86400
O1415       O  0.69123993  0.25454971  0.39521856    -0.86000
O1416       O  0.68789939  0.24276757  0.09658586    -0.87300
O1417       O  0.64442130  0.30532210  0.49701132    -0.85800
O1418       O  0.64225644  0.19517319  0.49228115    -0.85400
Zr1419     Zr  0.67414601  0.24985270  0.49500659     2.84300
O1420       O  0.70965630  0.28687536  0.46093667    -1.07400
O1421       O  0.71557243  0.21275933  0.03009823    -1.08100
C1422       C  0.65180398  0.16280854  0.49120226     1.07300
C1423       C  0.65503806  0.33726953  0.49930279     1.07300
C1424       C  0.65568766  0.24405081  0.08393336     1.10200
C1425       C  0.65826901  0.25549472  0.40434168     1.08000
H1426       H  0.69687769  0.29415207  0.05190341     0.33600
O1427       O  0.71275706  0.28061111  0.03731391    -1.28300
H1428       H  0.69421675  0.20196845  0.44244039     0.33200
O1429       O  0.70912922  0.21564922  0.45798897    -1.30000
O1430       O  0.80249558  0.34854618  0.50035127    -0.85800
O1431       O  0.79824703  0.14678548  0.49390826    -0.87300
O1432       O  0.74605928  0.29884285  0.10605538    -0.85900
O1433       O  0.74572203  0.31128837  0.39947780    -0.85900
O1434       O  0.74681829  0.19931918  0.39313318    -0.85600
O1435       O  0.74430331  0.18379192  0.09466135    -0.85400
O1436       O  0.85350820  0.24520016  0.05968279    -0.85800
O1437       O  0.84815102  0.24667781  0.43809334    -0.85300
O1438       O  0.80959068  0.24240194  0.10187062    -0.86300
O1439       O  0.80396949  0.25126045  0.39649313    -0.85500
O1440       O  0.74491104  0.34426115  0.06647627    -0.85900
O1441       O  0.74820578  0.14596699  0.04780505    -0.85600
O1442       O  0.74533288  0.15445662  0.43347435    -0.85300
O1443       O  0.74506336  0.35135523  0.44432734    -0.85700
O1444       O  0.84695411  0.30703086  0.49682522    -0.86000
O1445       O  0.84392145  0.18698415  0.49855998    -0.87300
Zr1446     Zr  0.74604535  0.31856380  0.49853158     2.83100
Zr1447     Zr  0.74343998  0.17905559  0.49335951     2.83500
Zr1448     Zr  0.74900028  0.24389950  0.07245807     2.84100
Zr1449     Zr  0.74697658  0.25285456  0.42591189     2.83400
Zr1450     Zr  0.81862368  0.24761620  0.49589423     2.84200
O1451       O  0.78157923  0.21432564  0.45949346    -1.07900
O1452       O  0.78620845  0.28264770  0.04215667    -1.07400
C1453       C  0.83545024  0.33931556  0.49861969     1.07300
C1454       C  0.83131108  0.15505230  0.49707732     1.09900
C1455       C  0.74465119  0.33185659  0.09798904     1.07500
C1456       C  0.74486936  0.34297435  0.41163363     1.07800
C1457       C  0.74625530  0.16674309  0.40166096     1.07400
C1458       C  0.74462905  0.15267320  0.08092897     1.07000
C1459       C  0.84298894  0.24279105  0.09149384     1.07400
C1460       C  0.83683954  0.24877804  0.40594607     1.06900
H1461       H  0.80111958  0.19607396  0.04950841     0.33600
O1462       O  0.78713739  0.21207213  0.03549796    -1.29000
H1463       H  0.79861605  0.30115103  0.44785519     0.33600
O1464       O  0.78374147  0.28593418  0.46202819    -1.30400
C1465       C  0.73733723  0.12569688  0.13985022    -0.15700
C1466       C  0.74117504  0.12197917  0.10484694    -0.30900
H1467       H  0.73545912  0.15193957  0.15095312     0.13300
H1468       H  0.74310153  0.09583375  0.09354149     0.13900
C1469       C  0.74403345  0.39244731  0.12231579    -0.15700
C1470       C  0.74309639  0.35729479  0.12729624    -0.30900
H1471       H  0.74490566  0.40317025  0.09587134     0.13300
H1472       H  0.74200409  0.34668187  0.15377787     0.13900
C1473       C  0.74321222  0.36830870  0.35194679    -0.15700
C1474       C  0.74377248  0.37255282  0.38689170    -0.30900
H1475       H  0.74308398  0.34207681  0.34065999     0.13300
H1476       H  0.74379663  0.39885093  0.39803904     0.13900
C1477       C  0.74613707  0.10771706  0.37578488    -0.15700
C1478       C  0.74649798  0.14247036  0.37179685    -0.30900
H1479       H  0.74590418  0.09632214  0.40198634     0.13300
H1480       H  0.74718797  0.15376052  0.34555808     0.13900
C1481       C  0.88972653  0.13192175  0.25856897    -0.15700
C1482       C  0.85412854  0.13495681  0.25670690    -0.30900
H1483       H  0.90148392  0.10579593  0.25804572     0.13300
H1484       H  0.84195131  0.16085976  0.25753257     0.13900
C1485       C  0.89319669  0.37544153  0.24921447    -0.15700
C1486       C  0.85792793  0.37245722  0.24540050    -0.30900
H1487       H  0.90496717  0.40152262  0.25083990     0.13300
H1488       H  0.84616379  0.34640757  0.24326950     0.13900
C1489       C  0.62648983  0.14414994  0.26268977    -0.15700
C1490       C  0.62189170  0.10901890  0.25927404    -0.30900
H1491       H  0.65323893  0.15497559  0.26532480     0.13300
H1492       H  0.59513493  0.09822538  0.25665541     0.13900
C1493       C  0.59806184  0.38036198  0.24912236    -0.15700
C1494       C  0.63337724  0.37694189  0.24917390    -0.30900
H1495       H  0.58595116  0.40628122  0.24756464     0.13300
H1496       H  0.64524372  0.35085408  0.24980337     0.13900
C1497       C  0.87161288  0.24487293  0.15060807    -0.15700
C1498       C  0.87353896  0.24031504  0.11605842    -0.30900
H1499       H  0.84563693  0.24915813  0.16267014     0.13300
H1500       H  0.89979933  0.23658835  0.10434027     0.13900
C1501       C  0.62871014  0.24886666  0.14354877    -0.15700
C1502       C  0.62510622  0.24455212  0.10861222    -0.30900
H1503       H  0.65520847  0.25164813  0.15488118     0.13300
H1504       H  0.59851702  0.24248036  0.09728682     0.13900
C1505       C  0.59876009  0.26525140  0.37787441    -0.15700
C1506       C  0.63340410  0.25763112  0.37466889    -0.30900
H1507       H  0.58726931  0.26993964  0.40368037     0.13300
H1508       H  0.64453198  0.25277033  0.34872469     0.13900
C1509       C  0.89702358  0.25711562  0.38029050    -0.15700
C1510       C  0.86252515  0.24865698  0.37664079    -0.30900
H1511       H  0.90760630  0.26305394  0.40621083     0.13300
H1512       H  0.85197459  0.24319744  0.35060052     0.13900
C1513       C  0.86252012  0.37173322  0.02019923    -0.15700
C1514       C  0.89773894  0.36838671  0.01605876    -0.30900
H1515       H  0.84975146  0.39500052  0.50505765     0.13300
H1516       H  0.90942148  0.34245446  0.01269895     0.13900
C1517       C  0.90367845  0.13345292  0.00162197    -0.15700
C1518       C  0.86805522  0.13050270  0.00198231    -0.30900
H1519       H  0.90120525  0.15216582  0.51363766     0.13300
H1520       H  0.85617272  0.10442312  0.00272090     0.13900
C1521       C  0.63525881  0.37012025  0.00018924    -0.15700
C1522       C  0.59953153  0.36818640  0.00267680    -0.30900
H1523       H  0.64747121  0.39599312  0.99839959     0.13300
H1524       H  0.65888843  0.40838826  0.50430569     0.13900
C1525       C  0.64168857  0.12487588  0.99160604    -0.15700
C1526       C  0.60613896  0.12598757  0.99498794    -0.30900
H1527       H  0.65445032  0.09927556  0.98987985     0.13300
H1528       H  0.65442712  0.09199369  0.49285897     0.13900
C1529       C  0.87099582  0.00785969  0.39285037    -0.15700
C1530       C  0.87643102  0.01085824  0.35805551    -0.30900
H1531       H  0.84402383  0.00655574  0.40337013     0.13300
H1532       H  0.85013071  0.48220372  0.39503836     0.13900
C1533       C  0.60736958  0.98576761  0.37221221    -0.15700
C1534       C  0.64308728  0.98630040  0.37478599    -0.30900
H1535       H  0.65783962  0.50149386  0.40891347     0.13300
H1536       H  0.65525374  0.98655542  0.40070995     0.13900
C1537       C  0.60244424  0.01236815  0.12885926    -0.15700
C1538       C  0.63403268  0.99601048  0.13034150    -0.30900
H1539       H  0.65283583  0.49938377  0.09310376     0.13300
H1540       H  0.64364060  0.98276537  0.10686287     0.13900
C1541       C  0.89426305  0.01822702  0.12739781    -0.15700
C1542       C  0.85888356  0.01741752  0.12324945    -0.30900
H1543       H  0.90244669  0.49555527  0.15357849     0.13300
H1544       H  0.84746930  0.01604269  0.09701773     0.13900
C1545       C  0.49823283  0.14507052  0.37708685    -0.15700
C1546       C  0.50046989  0.10983452  0.37437899    -0.30900
H1547       H  0.00687271  0.15751726  0.40610813     0.13300
H1548       H  0.98929147  0.10318693  0.34888077     0.13900
C1549       C  0.50497478  0.37798652  0.38393799    -0.15700
C1550       C  0.49183912  0.38012096  0.35102759    -0.30900
H1551       H  0.51245297  0.35222452  0.39384085     0.13300
H1552       H  0.00785209  0.40847657  0.34147675     0.13900
C1553       C  0.49327617  0.39306813  0.12626435    -0.15700
C1554       C  0.49515649  0.35783789  0.12149326    -0.30900
H1555       H  0.00447273  0.40383402  0.15557863     0.13300
H1556       H  0.49682572  0.34721594  0.09505122     0.13900
C1557       C  0.49680510  0.12659793  0.10700520    -0.15700
C1558       C  0.50511539  0.12308020  0.14134874    -0.30900
H1559       H  0.01813466  0.15083367  0.10183853     0.13300
H1560       H  0.50890251  0.09695787  0.15226470     0.13900
O1561       O  0.50615310  0.06166172  0.59693481    -0.85800
O1562       O  0.50088961  0.04612179  0.89639602    -0.86000
O1563       O  0.56519848  0.09116230  0.49373879    -0.87600
O1564       O  0.94710077  0.10478251  0.50124233    -0.86400
O1565       O  0.90205618  0.06431821  0.50679590    -0.86000
O1566       O  0.60513371  0.04524459  0.49354467    -0.87300
O1567       O  0.49593274  0.09265080  0.93445093    -0.85800
O1568       O  0.50765683  0.10140853  0.55130548    -0.85400
Zr1569     Zr  0.50369990  0.06951175  0.49569174     2.84300
O1570       O  0.97083208  0.03822154  0.96834145    -1.07400
O1571       O  0.53782744  0.03131490  0.53098702    -1.08100
C1572       C  0.50766370  0.09358801  0.58437104     1.07300
C1573       C  0.49864795  0.07927504  0.90330744     1.07300
C1574       C  0.59718726  0.07815325  0.49314702     1.10200
C1575       C  0.91424055  0.09630111  0.50521323     1.08000
H1576       H  0.54896854  0.04572005  0.94935575     0.33600
O1577       O  0.53386575  0.03209121  0.96478660    -1.28300
H1578       H  0.95665624  0.05436863  0.55122008     0.33200
O1579       O  0.96961542  0.03886672  0.53573489    -1.30000
O1580       O  0.48477224  0.43227525  0.90735614    -0.85800
O1581       O  0.49533416  0.43222180  0.59556846    -0.87300
O1582       O  0.60135989  0.99450439  0.94677540    -0.85900
O1583       O  0.89994606  0.00969913  0.94958742    -0.85900
O1584       O  0.90507920  0.00620459  0.56465020    -0.85600
O1585       O  0.60119816  0.99242392  0.55286857    -0.85400
O1586       O  0.56993475  0.40858965  0.49985277    -0.85800
O1587       O  0.95281107  0.39061142  0.49157706    -0.85300
O1588       O  0.60832364  0.45487944  0.50857801    -0.86300
O1589       O  0.90601297  0.42955988  0.48992612    -0.85500
O1590       O  0.55806508  0.98880236  0.90431565    -0.85900
O1591       O  0.56087509  0.99763270  0.59828874    -0.85600
O1592       O  0.95249174  0.00537685  0.60310732    -0.85300
O1593       O  0.94039089  0.00288270  0.90448197    -0.85700
O1594       O  0.48373671  0.39479192  0.95464401    -0.86000
O1595       O  0.50773706  0.39355902  0.55093770    -0.87300
Zr1596     Zr  0.50061298  0.99212036  0.93111296     2.83100
Zr1597     Zr  0.50133444  0.00100492  0.57152455     2.83500
Zr1598     Zr  0.57019944  0.99184063  0.49541540     2.84100
Zr1599     Zr  0.92895053  0.00474931  0.50471167     2.83400
Zr1600     Zr  0.50803875  0.42786186  0.49840831     2.84200
O1601       O  0.96336150  0.45677744  0.53004517    -1.07900
O1602       O  0.52551019  0.45769115  0.96452172    -1.07400
C1603       C  0.48330787  0.40118429  0.92143527     1.07300
C1604       C  0.50117441  0.40067814  0.58317526     1.09900
C1605       C  0.59069393  0.99020416  0.91435648     1.07500
C1606       C  0.90834427  0.00703359  0.91667067     1.07800
C1607       C  0.91865773  0.00646685  0.59595042     1.07400
C1608       C  0.59303510  0.99476721  0.58597382     1.07000
C1609       C  0.60139521  0.42203061  0.50405904     1.07400
C1610       C  0.91932603  0.39795631  0.49024089     1.06900
H1611       H  0.55213703  0.45110737  0.55387782     0.33600
O1612       O  0.53706666  0.46490397  0.53856703    -1.29000
H1613       H  0.95425431  0.43868926  0.95858113     0.33600
O1614       O  0.96820788  0.45588475  0.97125908    -1.30400
O1615       O  0.50512649  0.18608034  0.65522460    -0.85800
O1616       O  0.49613690  0.19646286  0.85608197    -0.86000
O1617       O  0.56380722  0.15433682  0.75978098    -0.87600
O1618       O  0.94527513  0.15036922  0.74666027    -0.86400
O1619       O  0.90100750  0.19202512  0.74948797    -0.86000
O1620       O  0.60301798  0.20068239  0.75792449    -0.87300
O1621       O  0.50124928  0.15211731  0.81542398    -0.85800
O1622       O  0.50853580  0.14673215  0.70105205    -0.85400
Zr1623     Zr  0.50441301  0.17858964  0.75654474     2.84300
O1624       O  0.96770023  0.21312647  0.78469654    -1.07400
O1625       O  0.53745525  0.21646579  0.72024727    -1.08100
C1626       C  0.50777147  0.15430969  0.66796804     1.07300
C1627       C  0.49820755  0.16380574  0.84726836     1.07300
C1628       C  0.59552887  0.16742181  0.75938959     1.10200
C1629       C  0.91234060  0.15989347  0.74756605     1.08000
H1630       H  0.55091413  0.20605041  0.80798050     0.33600
O1631       O  0.53526997  0.21863256  0.79222338    -1.28300
H1632       H  0.94749192  0.19962191  0.69941333     0.33200
O1633       O  0.96325782  0.21430619  0.71314057    -1.30000
O1634       O  0.48663171  0.31028773  0.85188038    -0.85800
O1635       O  0.49667913  0.30682792  0.65278157    -0.87300
O1636       O  0.59632389  0.26160932  0.81438120    -0.85900
O1637       O  0.90152254  0.24882612  0.80641993    -0.85900
O1638       O  0.89401097  0.24931399  0.69906677    -0.85600
O1639       O  0.60109158  0.25594883  0.70035665    -0.85400
O1640       O  0.54133363  0.35440631  0.75382422    -0.85800
O1641       O  0.95063066  0.35044388  0.75238728    -0.85300
O1642       O  0.58963559  0.31718899  0.75442445    -0.86300
O1643       O  0.90499091  0.31022187  0.74997702    -0.85500
O1644       O  0.55085635  0.26053217  0.85501715    -0.85900
O1645       O  0.56094395  0.24840222  0.65516384    -0.85600
O1646       O  0.93265744  0.24867246  0.65225268    -0.85300
O1647       O  0.94495565  0.24857167  0.84926255    -0.85700
O1648       O  0.48222477  0.34952543  0.80634832    -0.86000
O1649       O  0.48789443  0.34784644  0.69632730    -0.87300
Zr1650     Zr  0.49401273  0.25201125  0.82486460     2.83100
Zr1651     Zr  0.49993610  0.24660775  0.68057400     2.83500
Zr1652     Zr  0.56872973  0.25604981  0.75600019     2.84100
Zr1653     Zr  0.93046170  0.24991078  0.75111583     2.83400
Zr1654     Zr  0.48824367  0.31792935  0.75133523     2.84200
O1655       O  0.96471901  0.28586665  0.71521793    -1.07900
O1656       O  0.52768761  0.28898665  0.78889148    -1.07400
C1657       C  0.48291284  0.34172996  0.83926141     1.07300
C1658       C  0.49219502  0.33903312  0.66414197     1.06700
C1659       C  0.58415653  0.26262173  0.84628460     1.07500
C1660       C  0.91181146  0.24900049  0.83843479     1.07800
C1661       C  0.90076789  0.24852998  0.66601100     1.07400
C1662       C  0.59315986  0.25201999  0.66756934     1.07000
C1663       C  0.57515607  0.34815572  0.75410834     1.07400
C1664       C  0.91759792  0.34211741  0.75082138     1.06900
H1665       H  0.54389476  0.30209326  0.70360136     0.33600
O1666       O  0.52998255  0.28610601  0.71780347    -1.29000
H1667       H  0.95472185  0.29825575  0.80187517     0.33600
O1668       O  0.96880640  0.28322381  0.78677666    -1.30400
O1669       O  0.85290545  0.49253684  0.69365933    -0.85800
O1670       O  0.65164350  0.50013873  0.69103221    -0.86000
O1671       O  0.75098089  0.43273014  0.65421320    -0.87600
O1672       O  0.73899771  0.06268560  0.65360144    -0.86400
O1673       O  0.73673712  0.10251309  0.69899141    -0.86000
O1674       O  0.74918355  0.39305652  0.69955360    -0.87300
O1675       O  0.69596906  0.49634747  0.64919715    -0.85800
O1676       O  0.81044008  0.49198930  0.65021929    -0.85400
Zr1677     Zr  0.75186093  0.49391340  0.67933852     2.84300
O1678       O  0.70785603  0.03317889  0.72132448    -1.07400
O1679       O  0.78654502  0.45802711  0.71505606    -1.08100
C1680       C  0.84318310  0.49181613  0.66127474     1.07300
C1681       C  0.66324546  0.49960994  0.65872499     1.07300
C1682       C  0.75016537  0.40078059  0.66689281     1.10200
C1683       C  0.73716306  0.09459526  0.66596161     1.08000
H1684       H  0.69850594  0.44565534  0.70052923     0.33600
O1685       O  0.71340784  0.46044291  0.71503428    -1.28300
H1686       H  0.79041946  0.05836632  0.69886735     0.33200
O1687       O  0.77853118  0.04181380  0.71409061    -1.30000
O1688       O  0.65047869  0.49302493  0.81041129    -0.85800
O1689       O  0.85579873  0.49620610  0.80351905    -0.87300
O1690       O  0.69226962  0.39639367  0.75038006    -0.85900
O1691       O  0.68275402  0.09511420  0.75945633    -0.85900
O1692       O  0.79411819  0.10944285  0.75125373    -0.85600
O1693       O  0.80165561  0.39288924  0.75281753    -0.85400
O1694       O  0.75148219  0.43903732  0.85181257    -0.85800
O1695       O  0.75939659  0.05406141  0.85407570    -0.85300
O1696       O  0.74656969  0.39758531  0.80844440    -0.86300
O1697       O  0.74839154  0.09807803  0.81421277    -0.85500
O1698       O  0.64804960  0.43800007  0.74998411    -0.85900
O1699       O  0.84744411  0.43286030  0.74930909    -0.85600
O1700       O  0.84195526  0.07242858  0.74438329    -0.85300
O1701       O  0.64383462  0.04868374  0.76335664    -0.85700
O1702       O  0.69566452  0.49517011  0.85142913    -0.86000
O1703       O  0.81446635  0.49424794  0.84807094    -0.87300
Zr1704     Zr  0.67794393  0.49594595  0.75111895     2.83100
Zr1705     Zr  0.82260569  0.49385468  0.74954284     2.83500
Zr1706     Zr  0.74850008  0.42653450  0.75234669     2.84100
Zr1707     Zr  0.74268201  0.07163307  0.75512880     2.83400
Zr1708     Zr  0.75326115  0.49628388  0.82199241     2.84200
O1709       O  0.78649076  0.04000681  0.78551598    -1.07900
O1710       O  0.71394706  0.46185071  0.78820590    -1.07400
C1711       C  0.66244749  0.49332873  0.84251057     1.07300
C1712       C  0.84711269  0.49515514  0.83613219     1.09900
C1713       C  0.65937597  0.40577472  0.74974769     1.07500
C1714       C  0.65112509  0.08198122  0.76206753     1.07800
C1715       C  0.82764449  0.10330366  0.74741271     1.07400
C1716       C  0.83470327  0.40096739  0.75091112     1.07000
C1717       C  0.74871777  0.40696943  0.84074158     1.07400
C1718       C  0.75484954  0.08656282  0.84569353     1.06900
H1719       H  0.80234928  0.44436681  0.80128317     0.33600
O1720       O  0.78763082  0.45945798  0.78690539    -1.29000
H1721       H  0.70077234  0.04457011  0.81016389     0.33600
O1722       O  0.71523029  0.03181380  0.79346666    -1.30400
O1723       O  0.69883082  0.14860787  0.99087255    -0.85800
O1724       O  0.69316942  0.34868153  0.00486566    -0.86000
O1725       O  0.64357424  0.24578253  0.55112634    -0.87600
O1726       O  0.65637426  0.25577996  0.93447184    -0.86400
O1727       O  0.70351605  0.26100322  0.89589823    -0.86000
O1728       O  0.68508337  0.24635725  0.59581014    -0.87300
O1729       O  0.64901072  0.30749041  0.99742178    -0.85800
O1730       O  0.65275981  0.18842212  0.99213519    -0.85400
Zr1731     Zr  0.67928672  0.24905733  0.99512249     2.84300
O1732       O  0.71808603  0.28785003  0.96609648    -1.07400
O1733       O  0.70936998  0.21394120  0.53086943    -1.08100
C1734       C  0.66549701  0.15644053  0.99136712     1.07300
C1735       C  0.66029662  0.33969635  0.00094229     1.07300
C1736       C  0.65243985  0.24552687  0.58386835     1.10200
C1737       C  0.66981874  0.25972446  0.90319378     1.08000
H1738       H  0.69479550  0.29757857  0.54821442     0.33600
O1739       O  0.70973555  0.28311854  0.53352602    -1.28300
H1740       H  0.70613136  0.20501391  0.94221779     0.33200
O1741       O  0.71959313  0.21856036  0.95903283    -1.30000
O1742       O  0.80466607  0.35077725  0.01704704    -0.85800
O1743       O  0.81006182  0.15074838  0.99732833    -0.87300
O1744       O  0.74744176  0.30742725  0.59695071    -0.85900
O1745       O  0.75821758  0.31892343  0.90920177    -0.85900
O1746       O  0.75913498  0.20427555  0.89469836    -0.85600
O1747       O  0.74329543  0.18667958  0.59485777    -0.85400
O1748       O  0.84907496  0.24704026  0.55134796    -0.85800
O1749       O  0.86038220  0.25499510  0.95333757    -0.85300
O1750       O  0.80714400  0.24655548  0.59571790    -0.86300
O1751       O  0.82090108  0.25787292  0.90727911    -0.85500
O1752       O  0.74728379  0.34880193  0.55298104    -0.85900
O1753       O  0.74152977  0.14717667  0.54909702    -0.85600
O1754       O  0.75709903  0.15802667  0.93342677    -0.85300
O1755       O  0.75361689  0.35615142  0.95640330    -0.85700
O1756       O  0.84995665  0.31030037  0.01312879    -0.86000
O1757       O  0.85394183  0.19248055  0.00302737    -0.87300
Zr1758     Zr  0.75021958  0.31939111  0.00798996     2.83100
Zr1759     Zr  0.75384373  0.18078337  0.99387709     2.83500
Zr1760     Zr  0.74587873  0.24718638  0.56926092     2.84100
Zr1761     Zr  0.75858187  0.25773883  0.92981273     2.83400
Zr1762     Zr  0.82439995  0.25091176  0.00500156     2.84200
O1763       O  0.79241372  0.21851354  0.96352988    -1.07900
O1764       O  0.78227227  0.28198269  0.53291181    -1.07400
C1765       C  0.83771303  0.34201367  0.01695266     1.07300
C1766       C  0.84280659  0.16021191  0.00062217     1.09900
C1767       C  0.74778658  0.33982284  0.58531571     1.07500
C1768       C  0.75583237  0.34986583  0.92330769     1.07800
C1769       C  0.75820951  0.17115598  0.90198701     1.07400
C1770       C  0.74175526  0.15484220  0.58218273     1.07000
C1771       C  0.83992460  0.24671003  0.58387831     1.07400
C1772       C  0.85297314  0.25657477  0.92054651     1.06900
H1773       H  0.79463723  0.19694385  0.54480076     0.33600
O1774       O  0.78037408  0.21262837  0.53061558    -1.29000
H1775       H  0.80625802  0.30650772  0.95937833     0.33600
O1776       O  0.79071921  0.29003686  0.97113962    -1.30400
C1777       C  0.73651825  0.12560031  0.64152046    -0.15700
C1778       C  0.74056011  0.12364147  0.60638054    -0.30900
H1779       H  0.73388561  0.15143596  0.65338290     0.13300
H1780       H  0.74309285  0.09781573  0.59446253     0.13900
C1781       C  0.75025685  0.36923779  0.64383061    -0.15700
C1782       C  0.74853844  0.37083473  0.60900351    -0.30900
H1783       H  0.75119097  0.34355078  0.65631410     0.13300
H1784       H  0.74750894  0.39663060  0.59672189     0.13900
C1785       C  0.74845481  0.37757907  0.86578744    -0.15700
C1786       C  0.75526762  0.38089557  0.90008550    -0.30900
H1787       H  0.74343814  0.35158551  0.85498873     0.13300
H1788       H  0.75967424  0.40674333  0.91143310     0.13900
C1789       C  0.75702195  0.11168985  0.87537452    -0.15700
C1790       C  0.75746453  0.14679861  0.87151371    -0.30900
H1791       H  0.75858565  0.10055805  0.90163117     0.13300
H1792       H  0.75662764  0.15808518  0.84530230     0.13900
C1793       C  0.88680089  0.13061350  0.74599712    -0.15700
C1794       C  0.85128317  0.13433048  0.74705893    -0.30900
H1795       H  0.89823188  0.10440192  0.74435386     0.13300
H1796       H  0.83945113  0.16034745  0.74888093     0.13900
C1797       C  0.89372106  0.37276500  0.74979642    -0.15700
C1798       C  0.85841293  0.37012709  0.75084909    -0.30900
H1799       H  0.90593956  0.39867836  0.74867569     0.13300
H1800       H  0.84615467  0.34423012  0.75223526     0.13900
C1801       C  0.62570251  0.14230033  0.76039473    -0.15700
C1802       C  0.62089536  0.10711224  0.76321087    -0.30900
H1803       H  0.65251289  0.15304351  0.75810922     0.13300
H1804       H  0.59408969  0.09635316  0.76557130     0.13900
C1805       C  0.59880872  0.37929468  0.75399135    -0.15700
C1806       C  0.63398877  0.37621219  0.74854772    -0.30900
H1807       H  0.58712775  0.40505886  0.75838765     0.13300
H1808       H  0.64531195  0.35028052  0.74404509     0.13900
C1809       C  0.86867587  0.24747343  0.64307365    -0.15700
C1810       C  0.87095750  0.24662495  0.60808089    -0.30900
H1811       H  0.84247717  0.24772967  0.65542591     0.13300
H1812       H  0.89733486  0.24637833  0.59606700     0.13900
C1813       C  0.62433017  0.25166347  0.64313601    -0.15700
C1814       C  0.62166616  0.24455449  0.60867814    -0.30900
H1815       H  0.65051062  0.25738045  0.65410448     0.13300
H1816       H  0.59542787  0.23916333  0.59765587     0.13900
C1817       C  0.60960822  0.26516862  0.87608620    -0.15700
C1818       C  0.64522976  0.26207159  0.87259329    -0.30900
H1819       H  0.59825511  0.26748001  0.90226076     0.13300
H1820       H  0.65679050  0.26002313  0.84647604     0.13900
C1821       C  0.88154548  0.24984438  0.86310527    -0.15700
C1822       C  0.88450974  0.25640645  0.89724851    -0.30900
H1823       H  0.85504680  0.24569948  0.85206043     0.13300
H1824       H  0.91081462  0.26035093  0.90871403     0.13900
C1825       C  0.86064689  0.36935412  0.49842901    -0.15700
C1826       C  0.89513646  0.36704627  0.48951272    -0.30900
H1827       H  0.85099486  0.39772679  0.02375015     0.13300
H1828       H  0.90642603  0.34152184  0.48313180     0.13900
C1829       C  0.88978606  0.12660794  0.50754019    -0.15700
C1830       C  0.85539625  0.12436626  0.49883802    -0.30900
H1831       H  0.91603385  0.15928526  0.00057581     0.13300
H1832       H  0.84422511  0.09879543  0.49231370     0.13900
C1833       C  0.62638443  0.36312783  0.50115203    -0.15700
C1834       C  0.63192046  0.39779374  0.50336685    -0.30900
H1835       H  0.59927924  0.35279858  0.50060897     0.13300
H1836       H  0.58695618  0.34259056  0.00547485     0.13900
C1837       C  0.62238132  0.13742966  0.49039048    -0.15700
C1838       C  0.62750205  0.10267983  0.49194807    -0.30900
H1839       H  0.59539090  0.14798056  0.48951556     0.13300
H1840       H  0.59333681  0.15159185  0.99638683     0.13900
C1841       C  0.87821835  0.00846675  0.89145105    -0.15700
C1842       C  0.88245901  0.00909910  0.85625441    -0.30900
H1843       H  0.85142256  0.00890469  0.90247814     0.13300
H1844       H  0.90366695  0.50374627  0.85030994     0.13900
C1845       C  0.61582476  0.98699859  0.88435598    -0.15700
C1846       C  0.65130999  0.98979310  0.88596529    -0.30900
H1847       H  0.58966649  0.48736157  0.84353608     0.13300
H1848       H  0.66409858  0.99309606  0.91138226     0.13900
C1849       C  0.62358465  0.99460026  0.61123918    -0.15700
C1850       C  0.61995693  0.99374131  0.64665903    -0.30900
H1851       H  0.59081289  0.49933969  0.65788444     0.13300
H1852       H  0.59336938  0.99234829  0.65806091     0.13900
C1853       C  0.89393617  0.00821335  0.62649746    -0.15700
C1854       C  0.85807929  0.01024547  0.62319411    -0.30900
H1855       H  0.84196204  0.48826737  0.58969023     0.13300
H1856       H  0.84625515  0.01068965  0.59713021     0.13900
C1857       C  0.49678395  0.13855173  0.87675801    -0.15700
C1858       C  0.49950942  0.10354378  0.87285684    -0.30900
H1859       H  0.00415184  0.09563871  0.84311685     0.13300
H1860       H  0.00644942  0.14821537  0.90316781     0.13900
C1861       C  0.48199604  0.36978008  0.89837649    -0.15700
C1862       C  0.47997570  0.37218441  0.86329968    -0.30900
H1863       H  0.48410185  0.34405066  0.91061673     0.13300
H1864       H  0.00870529  0.39402737  0.85230582     0.13900
C1865       C  0.50035321  0.36899379  0.60619018    -0.15700
C1866       C  0.49223826  0.37000575  0.64025015    -0.30900
H1867       H  0.99786763  0.34572177  0.59571133     0.13300
H1868       H  0.48645206  0.39543720  0.65197314     0.13900
C1869       C  0.50846404  0.12480528  0.60858372    -0.15700
C1870       C  0.50938023  0.12301565  0.64392724    -0.30900
H1871       H  0.02791978  0.14941657  0.59561683     0.13300
H1872       H  0.51059641  0.09722655  0.65614211     0.13900
O1873       O  0.50894733  0.56631718  0.09442185    -0.85800
O1874       O  0.50371504  0.55494477  0.40105401    -0.86000
O1875       O  0.56633012  0.59373432  0.98841900    -0.87600
O1876       O  0.93322008  0.59066041  0.99324465    -0.86400
O1877       O  0.89441659  0.54421618  0.00011520    -0.86000
O1878       O  0.60438749  0.54633830  0.98808952    -0.87300
O1879       O  0.49285909  0.59806191  0.44213791    -0.85800
O1880       O  0.50972704  0.60517336  0.04810780    -0.85400
Zr1881     Zr  0.50464029  0.57183298  0.99216517     2.84300
O1882       O  0.96764450  0.53048408  0.46227153    -1.07400
O1883       O  0.53879149  0.53433242  0.02773590    -1.08100
C1884       C  0.51049255  0.59775451  0.08148854     1.07300
C1885       C  0.49798463  0.58717073  0.40994306     1.07300
C1886       C  0.59793942  0.57979983  0.98747561     1.10200
C1887       C  0.90135512  0.57717869  0.99587693     1.08000
H1888       H  0.54908969  0.55413957  0.45571755     0.33600
O1889       O  0.53448993  0.53805051  0.46907507    -1.28300
H1890       H  0.94687653  0.54874553  0.04875292     0.33200
O1891       O  0.96280680  0.53418093  0.03509169    -1.30000
O1892       O  0.48957318  0.93762160  0.40059832    -0.85800
O1893       O  0.49152325  0.95121707  0.10552120    -0.87300
O1894       O  0.60762324  0.50541733  0.45565579    -0.85900
O1895       O  0.90652072  0.49050885  0.43012578    -0.85900
O1896       O  0.90263392  0.49258993  0.06523151    -0.85600
O1897       O  0.60292212  0.49651493  0.04685547    -0.85400
O1898       O  0.55120313  0.89959844  0.01156500    -0.85800
O1899       O  0.93216002  0.90933066  0.01194726    -0.85300
O1900       O  0.59654652  0.94040317  0.00804965    -0.86300
O1901       O  0.89407791  0.95653585  0.01184523    -0.85500
O1902       O  0.56862338  0.49710414  0.40978663    -0.85900
O1903       O  0.56371082  0.50544022  0.09254986    -0.85600
O1904       O  0.94759881  0.50119066  0.10519703    -0.85300
O1905       O  0.95453626  0.49505258  0.39291776    -0.85700
O1906       O  0.48860474  0.89722752  0.44534844    -0.86000
O1907       O  0.49525738  0.90515804  0.06692597    -0.87300
Zr1908     Zr  0.50663212  0.49817830  0.42996775     2.83100
Zr1909     Zr  0.50250537  0.50694572  0.07024478     2.83500
Zr1910     Zr  0.56839984  0.49235373  0.99289668     2.84100
Zr1911     Zr  0.92991205  0.49088497  0.00575601     2.83400
Zr1912     Zr  0.49524529  0.92949002  0.00825082     2.84200
O1913       O  0.96418144  0.97180100  0.04261505    -1.07900
O1914       O  0.52987750  0.95903686  0.46216072    -1.07400
C1915       C  0.48810317  0.90579645  0.41266952     1.07300
C1916       C  0.49385155  0.91810888  0.09814355     1.09900
C1917       C  0.60038707  0.50012842  0.42297560     1.07500
C1918       C  0.92076380  0.49248002  0.39904599     1.07800
C1919       C  0.91476075  0.49638571  0.09703212     1.07400
C1920       C  0.59546608  0.50147951  0.07957023     1.07000
C1921       C  0.58427304  0.90823823  0.01010315     1.07400
C1922       C  0.90067917  0.92318125  0.01322155     1.06900
H1923       H  0.54415138  0.95569044  0.05791729     0.33600
O1924       O  0.53017083  0.96882243  0.04114291    -1.29000
H1925       H  0.94376651  0.95205574  0.45342613     0.33600
O1926       O  0.96024088  0.96657176  0.46650053    -1.30400
O1927       O  0.51172022  0.68535748  0.15496131    -0.85800
O1928       O  0.48968760  0.70350568  0.35455507    -0.86000
O1929       O  0.56472944  0.65693805  0.26381394    -0.87600
O1930       O  0.93218251  0.65423115  0.26135068    -0.86400
O1931       O  0.89291084  0.70051537  0.25879733    -0.86000
O1932       O  0.60461431  0.70287250  0.26678626    -0.87300
O1933       O  0.49878037  0.65649678  0.31771466    -0.85800
O1934       O  0.50981129  0.64614895  0.20093856    -0.85400
Zr1935     Zr  0.50303625  0.67944784  0.25660246     2.84300
O1936       O  0.96399001  0.72018688  0.29106579    -1.07400
O1937       O  0.54010104  0.71517670  0.22168563    -1.08100
C1938       C  0.51193655  0.65381191  0.16767828     1.07300
C1939       C  0.49374700  0.67027714  0.34866540     1.07300
C1940       C  0.59678355  0.66988509  0.26689900     1.10200
C1941       C  0.90014235  0.66747022  0.26090439     1.08000
H1942       H  0.54605005  0.70932643  0.30907439     0.33600
O1943       O  0.53217023  0.72145815  0.29148494    -1.28300
H1944       H  0.94578955  0.69704108  0.20653955     0.33200
O1945       O  0.96188019  0.71182928  0.21972472    -1.30000
O1946       O  0.48646885  0.81775862  0.34223924    -0.85800
O1947       O  0.50378470  0.80027617  0.14570424    -0.87300
O1948       O  0.59069993  0.76199916  0.31828321    -0.85900
O1949       O  0.90502761  0.75649208  0.31279712    -0.85900
O1950       O  0.90078925  0.74988051  0.19312498    -0.85600
O1951       O  0.60424309  0.74987939  0.20114526    -0.85400
O1952       O  0.55210887  0.85401040  0.24395710    -0.85800
O1953       O  0.94677100  0.85172776  0.24070372    -0.85300
O1954       O  0.59770156  0.81478228  0.25357204    -0.86300
O1955       O  0.90251240  0.81043470  0.24803543    -0.85500
O1956       O  0.54252452  0.76351712  0.35575048    -0.85900
O1957       O  0.56523120  0.74503406  0.15481478    -0.85600
O1958       O  0.94476489  0.74172485  0.15169881    -0.85300
O1959       O  0.95024237  0.76052893  0.35352487    -0.85700
O1960       O  0.49158004  0.85640117  0.29616094    -0.86000
O1961       O  0.49693635  0.84627077  0.18415918    -0.87300
Zr1962     Zr  0.48975921  0.75747072  0.31942688     2.83100
Zr1963     Zr  0.50610740  0.74484867  0.17894408     2.83500
Zr1964     Zr  0.57053485  0.75614771  0.25682723     2.84100
Zr1965     Zr  0.92916043  0.75297358  0.25214599     2.83400
Zr1966     Zr  0.49536932  0.82192729  0.24277509     2.84200
O1967       O  0.96687416  0.78218668  0.21246329    -1.07900
O1968       O  0.52861563  0.79188209  0.28519048    -1.07400
C1969       C  0.48847205  0.84913156  0.32906676     1.07300
C1970       C  0.50012505  0.83332764  0.15303116     1.06700
C1971       C  0.57631726  0.76350322  0.34933200     1.07500
C1972       C  0.91732112  0.75871360  0.34470960     1.07800
C1973       C  0.91212472  0.74564987  0.16105456     1.07400
C1974       C  0.59681795  0.74660781  0.16797398     1.07000
C1975       C  0.58543689  0.84617652  0.24837950     1.07400
C1976       C  0.91343460  0.84218723  0.24366608     1.06900
H1977       H  0.55231003  0.79976288  0.19956580     0.33600
O1978       O  0.53679676  0.78566761  0.21417298    -1.29000
H1979       H  0.95420921  0.80663477  0.29599054     0.33600
O1980       O  0.96830350  0.79005886  0.28273674    -1.30400
O1981       O  0.84732832  0.01583903  0.18492400    -0.85800
O1982       O  0.64831458  0.99715605  0.19292897    -0.86000
O1983       O  0.75336989  0.94893008  0.14899177    -0.87600
O1984       O  0.74403478  0.56425182  0.15554286    -0.86400
O1985       O  0.74732991  0.60275342  0.20193264    -0.86000
O1986       O  0.75693558  0.90384915  0.18904208    -0.87300
O1987       O  0.69193163  0.99992260  0.15053730    -0.85800
O1988       O  0.80125689  0.01278308  0.14532962    -0.85400
Zr1989     Zr  0.74816739  0.00559598  0.17962003     2.84300
O1990       O  0.70949223  0.53738082  0.21947150    -1.07400
O1991       O  0.78974856  0.97240979  0.21119674    -1.08100
C1992       C  0.83441173  0.01549943  0.15331226     1.07300
C1993       C  0.65924148  0.99809684  0.16034476     1.07300
C1994       C  0.75505337  0.91595181  0.15727410     1.10200
C1995       C  0.74580333  0.59557537  0.16861546     1.08000
H1996       H  0.70428542  0.94942685  0.20017124     0.33600
O1997       O  0.71811470  0.96487545  0.21496433    -1.28300
H1998       H  0.79681215  0.55043810  0.20400022     0.33200
O1999       O  0.78191692  0.53497212  0.21789329    -1.30000
O2000       O  0.65394403  0.99012682  0.31223115    -0.85800
O2001       O  0.85623432  0.01251033  0.29987897    -0.87300
O2002       O  0.70492737  0.89663887  0.25039865    -0.85900
O2003       O  0.68786242  0.59729498  0.26068613    -0.85900
O2004       O  0.80842961  0.59535203  0.25875773    -0.85600
O2005       O  0.82322752  0.91214561  0.24323291    -0.85400
O2006       O  0.76360004  0.94500362  0.34812473    -0.85800
O2007       O  0.74890158  0.54165878  0.35651463    -0.85300
O2008       O  0.76290377  0.90197060  0.30600821    -0.86300
O2009       O  0.75012731  0.58940658  0.31958344    -0.85500
O2010       O  0.65697234  0.93459178  0.25070377    -0.85900
O2011       O  0.86115091  0.95975375  0.24146786    -0.85600
O2012       O  0.84994420  0.55118607  0.25163303    -0.85300
O2013       O  0.64518973  0.55392728  0.25590542    -0.85700
O2014       O  0.70075485  0.99072032  0.35131375    -0.86000
O2015       O  0.81494859  0.00606540  0.34401680    -0.87300
Zr2016     Zr  0.67858084  0.99542443  0.25183808     2.83100
Zr2017     Zr  0.82355420  0.01169433  0.24501117     2.83500
Zr2018     Zr  0.75997790  0.93137580  0.24732523     2.84100
Zr2019     Zr  0.74769459  0.56891212  0.25740585     2.83400
Zr2020     Zr  0.75556488  0.99966618  0.31852517     2.84200
O2021       O  0.78317793  0.52761830  0.28705671    -1.07900
O2022       O  0.72086714  0.96238787  0.28396215    -1.07400
C2023       C  0.66723966  0.98889229  0.34381952     1.07300
C2024       C  0.84715126  0.01001690  0.33243377     1.09900
C2025       C  0.67101935  0.90343941  0.25077169     1.07500
C2026       C  0.65493147  0.58622260  0.25933275     1.07800
C2027       C  0.84102187  0.58371045  0.25581373     1.07400
C2028       C  0.85486404  0.92641403  0.24157605     1.07000
C2029       C  0.76413701  0.91281838  0.33845573     1.07400
C2030       C  0.75023118  0.57493708  0.35067096     1.06900
H2031       H  0.81151586  0.95689496  0.29458254     0.33600
O2032       O  0.79435231  0.97003550  0.28097912    -1.29000
H2033       H  0.69641415  0.54307371  0.30520469     0.33600
O2034       O  0.71089652  0.52993686  0.28891602    -1.30400
O2035       O  0.69526937  0.65019033  0.50567599    -0.85800
O2036       O  0.69676718  0.85165369  0.49046421    -0.86000
O2037       O  0.64372070  0.74813516  0.04959260    -0.87600
O2038       O  0.64827991  0.75307813  0.43981888    -0.86400
O2039       O  0.69199725  0.74647759  0.39824588    -0.86000
O2040       O  0.68312655  0.74122554  0.09523420    -0.87300
O2041       O  0.65178105  0.81052123  0.49496546    -0.85800
O2042       O  0.65066159  0.69184802  0.50321163    -0.85400
Zr2043     Zr  0.67893854  0.75123320  0.49721601     2.84300
O2044       O  0.71478771  0.78520825  0.45983351    -1.07400
O2045       O  0.71063563  0.71298164  0.02958805    -1.08100
C2046       C  0.66221665  0.65956946  0.50569466     1.07300
C2047       C  0.66368602  0.84255907  0.49257519     1.07300
C2048       C  0.65137877  0.74389007  0.08247932     1.10200
C2049       C  0.65935886  0.75079472  0.40762008     1.08000
H2050       H  0.69680950  0.79861162  0.05226347     0.33600
O2051       O  0.71243921  0.78478484  0.03757403    -1.28300
H2052       H  0.69916705  0.69637277  0.45134110     0.33200
O2053       O  0.71421690  0.71177300  0.46500643    -1.30000
O2054       O  0.81505593  0.84812037  0.49052121    -0.85800
O2055       O  0.81222374  0.65037288  0.50095531    -0.87300
O2056       O  0.74281315  0.79840296  0.10671597    -0.85900
O2057       O  0.74850414  0.79954173  0.39268393    -0.85900
O2058       O  0.75112508  0.68949716  0.40073477    -0.85600
O2059       O  0.74365620  0.68394231  0.09625585    -0.85400
O2060       O  0.84308394  0.74612737  0.07175903    -0.85800
O2061       O  0.84816703  0.74689593  0.43396430    -0.85300
O2062       O  0.79501955  0.74314055  0.10905163    -0.86300
O2063       O  0.80252938  0.74369535  0.39390490    -0.85500
O2064       O  0.75241794  0.84454110  0.06901727    -0.85900
O2065       O  0.74622475  0.64507546  0.05011721    -0.85600
O2066       O  0.75282752  0.64741770  0.44397119    -0.85300
O2067       O  0.75410754  0.84630537  0.43028391    -0.85700
O2068       O  0.85630214  0.80357225  0.48773718    -0.86000
O2069       O  0.85395605  0.69437847  0.49644335    -0.87300
Zr2070     Zr  0.75400890  0.82243915  0.49072127     2.83100
Zr2071     Zr  0.75263351  0.67889232  0.50230457     2.83500
Zr2072     Zr  0.74317051  0.74377014  0.07209801     2.84100
Zr2073     Zr  0.74892387  0.74623292  0.42742325     2.83400
Zr2074     Zr  0.82310079  0.75000205  0.49392451     2.84200
O2075       O  0.78647661  0.71197897  0.46266614    -1.07900
O2076       O  0.78407356  0.78192216  0.04531739    -1.07400
C2077       C  0.84757699  0.83614290  0.48871660     1.07300
C2078       C  0.84488081  0.66184596  0.49848365     1.09900
C2079       C  0.74771523  0.83145157  0.10007016     1.07500
C2080       C  0.75156030  0.83256837  0.39912133     1.07800
C2081       C  0.75248914  0.65749996  0.41111725     1.07400
C2082       C  0.74487420  0.65247665  0.08336986     1.07000
C2083       C  0.82864901  0.74469296  0.10277560     1.07400
C2084       C  0.83559768  0.74499693  0.40222391     1.06900
H2085       H  0.79594432  0.69437124  0.05201750     0.33600
O2086       O  0.78239931  0.71030955  0.03746554    -1.29000
H2087       H  0.80235417  0.79714746  0.44059361     0.33600
O2088       O  0.78772937  0.78401637  0.45687721    -1.30400
C2089       C  0.74607794  0.62591698  0.14371951    -0.15700
C2090       C  0.74497368  0.62220042  0.10833041    -0.30900
H2091       H  0.74715882  0.65213060  0.15495969     0.13300
H2092       H  0.74434504  0.59597149  0.09707913     0.13900
C2093       C  0.75470158  0.89072764  0.12736106    -0.15700
C2094       C  0.74815915  0.85594472  0.13070080    -0.30900
H2095       H  0.75907743  0.90161305  0.10132121     0.13300
H2096       H  0.74306650  0.84504883  0.15661043     0.13900
C2097       C  0.76597866  0.88793222  0.36827623    -0.15700
C2098       C  0.75224837  0.85552358  0.36760948    -0.30900
H2099       H  0.77615330  0.89810145  0.39303328     0.13300
H2100       H  0.74175625  0.84518118  0.34308533     0.13900
C2101       C  0.75155868  0.59740832  0.38286167    -0.15700
C2102       C  0.75343559  0.63245795  0.38106318    -0.30900
H2103       H  0.75027398  0.58480880  0.40844652     0.13300
H2104       H  0.75464536  0.64435436  0.35510099     0.13900
C2105       C  0.86871645  0.64344570  0.26219458    -0.15700
C2106       C  0.87164598  0.60865993  0.25680589    -0.30900
H2107       H  0.84241181  0.65491416  0.26608451     0.13300
H2108       H  0.89804839  0.59762726  0.25231002     0.13900
C2109       C  0.88373879  0.86805532  0.24252044    -0.15700
C2110       C  0.88690371  0.90309451  0.24028612    -0.30900
H2111       H  0.85702495  0.85698114  0.24464308     0.13300
H2112       H  0.91329201  0.91491213  0.23852230     0.13900
C2113       C  0.62770262  0.64549166  0.26944691    -0.15700
C2114       C  0.62471847  0.61138031  0.26111429    -0.30900
H2115       H  0.65381563  0.65627510  0.27581153     0.13300
H2116       H  0.59845035  0.60101837  0.25460868     0.13900
C2117       C  0.61086790  0.87610934  0.24729756    -0.15700
C2118       C  0.64649516  0.87273298  0.25138202    -0.30900
H2119       H  0.59959045  0.90206544  0.24296791     0.13300
H2120       H  0.65805360  0.84680644  0.25509285     0.13900
C2121       C  0.88724676  0.74526677  0.13120797    -0.15700
C2122       C  0.85178576  0.74522769  0.13413969    -0.30900
H2123       H  0.89918603  0.74437486  0.10516362     0.13300
H2124       H  0.83943612  0.74557158  0.15998465     0.13900
C2125       C  0.62680265  0.74488396  0.14283100    -0.15700
C2126       C  0.62148601  0.74287867  0.10771244    -0.30900
H2127       H  0.65374762  0.74632676  0.15336064     0.13300
H2128       H  0.59453789  0.74209118  0.09708413     0.13900
C2129       C  0.60003853  0.76365734  0.38048542    -0.15700
C2130       C  0.63411179  0.75320671  0.37795081    -0.30900
H2131       H  0.58882223  0.77012024  0.40601519     0.13300
H2132       H  0.64472537  0.74646662  0.35222629     0.13900
C2133       C  0.89270279  0.75858145  0.37455073    -0.15700
C2134       C  0.86004105  0.74507386  0.37223410    -0.30900
H2135       H  0.90253254  0.76804840  0.39972294     0.13300
H2136       H  0.85016203  0.73559794  0.34709557     0.13900
C2137       C  0.87407268  0.86382711  0.01879755    -0.15700
C2138       C  0.86969528  0.89888934  0.01552979    -0.30900
H2139       H  0.90296462  0.85188973  0.47619778     0.13300
H2140       H  0.84300046  0.90985846  0.01309787     0.13900
C2141       C  0.86972486  0.60090051  0.99451382    -0.15700
C2142       C  0.87279694  0.63584974  0.99808286    -0.30900
H2143       H  0.84611434  0.59085833  0.48947702     0.13300
H2144       H  0.89935692  0.64701857  0.00128735     0.13900
C2145       C  0.64312547  0.87841776  0.00310429    -0.15700
C2146       C  0.60834069  0.87719074  0.01042307    -0.30900
H2147       H  0.65547733  0.90385462  0.99840297     0.13300
H2148       H  0.59105257  0.84298925  0.49463143     0.13900
C2149       C  0.62653670  0.63918956  0.98607345    -0.15700
C2150       C  0.62962709  0.60379258  0.98627968    -0.30900
H2151       H  0.59995238  0.65067444  0.98557952     0.13300
H2152       H  0.58886772  0.65750521  0.50982026     0.13900
C2153       C  0.89733279  0.49212082  0.36738594    -0.15700
C2154       C  0.86195902  0.48682865  0.36935388    -0.30900
H2155       H  0.90953622  0.49677414  0.34190209     0.13300
H2156       H  0.90345362  0.01282582  0.34771916     0.13900
C2157       C  0.63102757  0.49726414  0.39876368    -0.15700
C2158       C  0.62597184  0.49044020  0.36459488    -0.30900
H2159       H  0.59528844  0.98568000  0.34624170     0.13300
H2160       H  0.59901486  0.48676991  0.35456973     0.13900
C2161       C  0.62611237  0.50237251  0.10390693    -0.15700
C2162       C  0.62154360  0.50574293  0.13866709    -0.30900
H2163       H  0.59255139  0.02592188  0.15202785     0.13300
H2164       H  0.59471294  0.50790489  0.14942308     0.13900
C2165       C  0.89042694  0.49553476  0.12757698    -0.15700
C2166       C  0.85497720  0.49674830  0.12474620    -0.30900
H2167       H  0.90562457  0.01915216  0.15366802     0.13300
H2168       H  0.84292899  0.49762299  0.09876655     0.13900
C2169       C  0.49275797  0.64703622  0.38063789    -0.15700
C2170       C  0.49773171  0.61200664  0.37929370    -0.30900
H2171       H  0.99659991  0.66009945  0.40958077     0.13300
H2172       H  0.00586207  0.60154045  0.35539109     0.13900
C2173       C  0.48599582  0.87598476  0.38801006    -0.15700
C2174       C  0.48778030  0.87966387  0.35305492    -0.30900
H2175       H  0.48407592  0.84981392  0.39931461     0.13300
H2176       H  0.00331812  0.90693841  0.33992977     0.13900
C2177       C  0.49522054  0.89320494  0.12787361    -0.15700
C2178       C  0.49932736  0.85823809  0.12326622    -0.30900
H2179       H  0.00061281  0.89984120  0.15254424     0.13300
H2180       H  0.50187491  0.84747142  0.09695232     0.13900
C2181       C  0.51229566  0.62789353  0.10677580    -0.15700
C2182       C  0.51372083  0.62382977  0.14224098    -0.30900
H2183       H  0.99350663  0.65158329  0.09819836     0.13300
H2184       H  0.51471718  0.59747947  0.15317743     0.13900
O2185       O  0.49200327  0.55014068  0.60282029    -0.85800
O2186       O  0.49219070  0.54688413  0.89334632    -0.86000
O2187       O  0.54421928  0.60623379  0.50605270    -0.87600
O2188       O  0.93595263  0.59119355  0.49704048    -0.86400
O2189       O  0.89626739  0.54538743  0.48976832    -0.86000
O2190       O  0.59229854  0.56892688  0.51020856    -0.87300
O2191       O  0.50254562  0.59342816  0.93058733    -0.85800
O2192       O  0.49210689  0.59546467  0.56271859    -0.85400
Zr2193     Zr  0.49146757  0.56955653  0.50183474     2.84300
O2194       O  0.96299524  0.52506495  0.96539484    -1.07400
O2195       O  0.52694941  0.53573730  0.54008897    -1.08100
C2196       C  0.49273914  0.58322961  0.59483457     1.07300
C2197       C  0.49738837  0.57985972  0.89957253     1.07300
C2198       C  0.57795017  0.60005520  0.50879886     1.10200
C2199       C  0.90389911  0.57827814  0.49309742     1.08000
H2200       H  0.54726066  0.54033586  0.94085287     0.33600
O2201       O  0.53240216  0.52845709  0.95785993    -1.28300
H2202       H  0.94299322  0.54128852  0.54423653     0.33200
O2203       O  0.96016811  0.52803987  0.53070397    -1.30000
O2204       O  0.50352071  0.93108499  0.91028732    -0.85800
O2205       O  0.49877120  0.94141765  0.59896308    -0.87300
O2206       O  0.59108414  0.48906960  0.93191596    -0.85900
O2207       O  0.89826786  0.48439649  0.95097567    -0.85900
O2208       O  0.89292977  0.48897694  0.54377465    -0.85600
O2209       O  0.59276833  0.50716299  0.56990525    -0.85400
O2210       O  0.54554186  0.89308683  0.49772898    -0.85800
O2211       O  0.93990957  0.90531899  0.50027823    -0.85300
O2212       O  0.59295349  0.93120965  0.49465722    -0.86300
O2213       O  0.89822097  0.94918062  0.50774483    -0.85500
O2214       O  0.54367553  0.48861848  0.89354379    -0.85900
O2215       O  0.54595468  0.49702198  0.60759685    -0.85600
O2216       O  0.93143608  0.49113946  0.59070390    -0.85300
O2217       O  0.93956503  0.48649911  0.90612687    -0.85700
O2218       O  0.49956689  0.89297548  0.95680347    -0.86000
O2219       O  0.49038082  0.90007213  0.55560064    -0.87300
Zr2220     Zr  0.48977744  0.49344755  0.92866421     2.83100
Zr2221     Zr  0.49347828  0.49382257  0.57142100     2.83500
Zr2222     Zr  0.57125305  0.50714054  0.50847344     2.84100
Zr2223     Zr  0.92951781  0.49066997  0.49099077     2.83400
Zr2224     Zr  0.49224001  0.92868391  0.50028619     2.84200
O2225       O  0.96852016  0.96842078  0.53636721    -1.07900
O2226       O  0.53450339  0.96169415  0.97241004    -1.07400
C2227       C  0.50222423  0.89985118  0.92388395     1.07300
C2228       C  0.49434505  0.90932619  0.58763572     1.09900
C2229       C  0.57739302  0.48848742  0.90052415     1.07500
C2230       C  0.90700750  0.48480300  0.91829037     1.07800
C2231       C  0.89978114  0.48974819  0.57696243     1.07400
C2232       C  0.57915597  0.50242680  0.60099004     1.07000
C2233       C  0.57911540  0.89994159  0.49554416     1.07400
C2234       C  0.90733469  0.91681436  0.50411286     1.06900
H2235       H  0.54684646  0.94596236  0.54831919     0.33600
O2236       O  0.53254522  0.96169086  0.53425473    -1.29000
H2237       H  0.94382148  0.95505621  0.95707367     0.33600
O2238       O  0.96097193  0.96870167  0.97021374    -1.30400
O2239       O  0.50610832  0.70025504  0.64760951    -0.85800
O2240       O  0.49680421  0.69599902  0.85023235    -0.86000
O2241       O  0.56499659  0.65649562  0.75019664    -0.87600
O2242       O  0.93182472  0.65537962  0.75050077    -0.86400
O2243       O  0.89277762  0.70168452  0.75314047    -0.86000
O2244       O  0.60523382  0.70190030  0.75537833    -0.87300
O2245       O  0.50029575  0.65264223  0.80807436    -0.85800
O2246       O  0.50378831  0.65511857  0.68797644    -0.85400
Zr2247     Zr  0.50332557  0.68129063  0.74887453     2.84300
O2248       O  0.96299935  0.71779692  0.78725164    -1.07400
O2249       O  0.53922153  0.72121224  0.71720004    -1.08100
C2250       C  0.50455905  0.66720225  0.65576923     1.07300
C2251       C  0.49851082  0.66359579  0.84054711     1.07300
C2252       C  0.59735263  0.66901943  0.75262685     1.10200
C2253       C  0.89995055  0.66856321  0.75188050     1.08000
H2254       H  0.54937539  0.70448356  0.80324479     0.33600
O2255       O  0.53462807  0.71867489  0.78801386    -1.28300
H2256       H  0.94208865  0.70587623  0.70019348     0.33200
O2257       O  0.95891565  0.71891521  0.71433081    -1.30000
O2258       O  0.49563340  0.81130927  0.85155021    -0.85800
O2259       O  0.50528940  0.81762648  0.65466931    -0.87300
O2260       O  0.59698438  0.75710981  0.81604092    -0.85900
O2261       O  0.90111705  0.75858805  0.80980090    -0.85900
O2262       O  0.89381627  0.75804717  0.69890525    -0.85600
O2263       O  0.60651338  0.75726259  0.70237862    -0.85400
O2264       O  0.55321647  0.85595110  0.75805814    -0.85800
O2265       O  0.94665025  0.85391858  0.75037118    -0.85300
O2266       O  0.59854452  0.81537823  0.75948255    -0.86300
O2267       O  0.90212139  0.81242429  0.75280292    -0.85500
O2268       O  0.55078049  0.75501285  0.85570114    -0.85900
O2269       O  0.56730425  0.75698533  0.65585237    -0.85600
O2270       O  0.93366225  0.75949647  0.65314666    -0.85300
O2271       O  0.94443505  0.75457341  0.85238504    -0.85700
O2272       O  0.49481921  0.85360863  0.80855046    -0.86000
O2273       O  0.50306371  0.85737741  0.70010868    -0.87300
Zr2274     Zr  0.49543528  0.75314376  0.82252779     2.83100
Zr2275     Zr  0.50507235  0.75672520  0.67891986     2.83500
Zr2276     Zr  0.57185574  0.75667374  0.75635566     2.84100
Zr2277     Zr  0.92839298  0.75532450  0.75279236     2.83400
Zr2278     Zr  0.49727302  0.82438871  0.75292731     2.84200
O2279       O  0.96334298  0.79135164  0.71665772    -1.07900
O2280       O  0.53266056  0.79029729  0.79017974    -1.07400
C2281       C  0.49540465  0.84368368  0.84074030     1.07300
C2282       C  0.50490632  0.84941128  0.66753173     1.06700
C2283       C  0.58423613  0.75645215  0.84768877     1.07500
C2284       C  0.91145945  0.75758980  0.84192950     1.07800
C2285       C  0.90159965  0.75947692  0.66597540     1.07400
C2286       C  0.59936181  0.75706250  0.66925647     1.07000
C2287       C  0.58641644  0.84720911  0.75973674     1.07400
C2288       C  0.91327693  0.84421946  0.75147952     1.06900
H2289       H  0.55300481  0.80723258  0.70573556     0.33600
O2290       O  0.53737596  0.79167445  0.71864235    -1.29000
H2291       H  0.95389542  0.80463283  0.80223761     0.33600
O2292       O  0.96752370  0.78904111  0.78736239    -1.30400
O2293       O  0.84669456  0.01228062  0.68501836    -0.85800
O2294       O  0.64446362  0.99276069  0.70464878    -0.86000
O2295       O  0.74821949  0.94390651  0.65028524    -0.87600
O2296       O  0.75165183  0.55175253  0.64971366    -0.86400
O2297       O  0.74972943  0.59660787  0.69024425    -0.86000
O2298       O  0.75797983  0.90258774  0.69323825    -0.87300
O2299       O  0.68271481  0.99848533  0.65759303    -0.85800
O2300       O  0.79958428  0.00756103  0.64658534    -0.85400
Zr2301     Zr  0.74384235  0.00283805  0.68014517     2.84300
O2302       O  0.71572962  0.53010993  0.71535527    -1.07400
O2303       O  0.78748381  0.97165259  0.71156068    -1.08100
C2304       C  0.83329685  0.01021016  0.65373212     1.07300
C2305       C  0.65117045  0.99498646  0.67120021     1.07300
C2306       C  0.75342183  0.91165696  0.66097915     1.10200
C2307       C  0.75063061  0.58484126  0.65799645     1.08000
H2308       H  0.70116138  0.94765907  0.70603664     0.33600
O2309       O  0.71579906  0.96374123  0.71940297    -1.28300
H2310       H  0.80172472  0.54497101  0.69997777     0.33200
O2311       O  0.78660407  0.53078624  0.71488248    -1.30000
O2312       O  0.65923288  0.98982538  0.82261542    -0.85800
O2313       O  0.85824269  0.01201354  0.79868303    -0.87300
O2314       O  0.70551732  0.89629458  0.75494956    -0.85900
O2315       O  0.68944375  0.59572976  0.75139628    -0.85900
O2316       O  0.81013758  0.59548740  0.75031943    -0.85600
O2317       O  0.82280421  0.91224693  0.74648332    -0.85400
O2318       O  0.76370724  0.93922620  0.84928285    -0.85800
O2319       O  0.75638739  0.55267930  0.85151632    -0.85300
O2320       O  0.76424926  0.89902802  0.80443960    -0.86300
O2321       O  0.75364581  0.59644932  0.80988919    -0.85500
O2322       O  0.65791569  0.93384240  0.76187231    -0.85900
O2323       O  0.86025321  0.95977625  0.74103745    -0.85600
O2324       O  0.85198408  0.55111129  0.74951515    -0.85300
O2325       O  0.64715565  0.55183389  0.75281957    -0.85700
O2326       O  0.70758112  0.99363485  0.85969076    -0.86000
O2327       O  0.82016543  0.00383875  0.84526853    -0.87300
Zr2328     Zr  0.67930123  0.99417122  0.76001563     2.83100
Zr2329     Zr  0.82239488  0.01089462  0.74475399     2.83500
Zr2330     Zr  0.75984809  0.93164350  0.74964231     2.84100
Zr2331     Zr  0.75034280  0.56833537  0.75001895     2.83400
Zr2332     Zr  0.75949337  0.99862312  0.82274503     2.84200
O2333       O  0.78718046  0.53123417  0.78418395    -1.07900
O2334       O  0.72328961  0.96152775  0.78945614    -1.07400
C2335       C  0.67392158  0.99075829  0.85374926     1.07300
C2336       C  0.85154114  0.00853086  0.83185581     1.09900
C2337       C  0.67192310  0.90289198  0.75929328     1.07500
C2338       C  0.65650683  0.58442377  0.75247860     1.07800
C2339       C  0.84274375  0.58382506  0.75007596     1.07400
C2340       C  0.85422343  0.92661192  0.74343764     1.07000
C2341       C  0.76449901  0.90728029  0.83729761     1.07400
C2342       C  0.75591751  0.58530547  0.84231495     1.06900
H2343       H  0.81347644  0.95625723  0.79535338     0.33600
O2344       O  0.79573175  0.96949432  0.78256682    -1.29000
H2345       H  0.70100202  0.54601629  0.80141325     0.33600
O2346       O  0.71561275  0.53154088  0.78631514    -1.30400
O2347       O  0.68962956  0.65223561  0.98944132    -0.85800
O2348       O  0.69979998  0.85450665  0.00661722    -0.86000
O2349       O  0.64953360  0.75624468  0.55336772    -0.87600
O2350       O  0.65555282  0.75850602  0.93589167    -0.86400
O2351       O  0.70315181  0.76155616  0.89780249    -0.86000
O2352       O  0.69222199  0.75937640  0.59669553    -0.87300
O2353       O  0.65369082  0.81525396  0.99915466    -0.85800
O2354       O  0.64852050  0.69727458  0.98939956    -0.85400
Zr2355     Zr  0.67897154  0.75420975  0.99557866     2.84300
O2356       O  0.72022479  0.79079920  0.96702248    -1.07400
O2357       O  0.71705781  0.71903982  0.53442576    -1.08100
C2358       C  0.65716723  0.66431137  0.98824056     1.07300
C2359       C  0.66663241  0.84695566  0.00297113     1.07300
C2360       C  0.65922606  0.75858757  0.58569480     1.10200
C2361       C  0.66932561  0.76075048  0.90477690     1.08000
H2362       H  0.70230711  0.80560217  0.54251141     0.33600
O2363       O  0.71680991  0.78964493  0.52887303    -1.28300
H2364       H  0.70412192  0.70733450  0.94346574     0.33200
O2365       O  0.71802839  0.72003674  0.96069060    -1.30000
O2366       O  0.81210733  0.84981471  0.01432930    -0.85800
O2367       O  0.80965089  0.65021271  0.99516455    -0.87300
O2368       O  0.75279486  0.81935803  0.59103729    -0.85900
O2369       O  0.76162657  0.81748985  0.90808142    -0.85900
O2370       O  0.75902632  0.70283580  0.89656910    -0.85600
O2371       O  0.75158460  0.70293709  0.60266212    -0.85400
O2372       O  0.85429759  0.75796134  0.54912394    -0.85800
O2373       O  0.85893177  0.75216950  0.95801190    -0.85300
O2374       O  0.81265359  0.76114236  0.59349976    -0.86300
O2375       O  0.82097836  0.75689045  0.91078747    -0.85500
O2376       O  0.75408522  0.85751529  0.54423933    -0.85900
O2377       O  0.75172864  0.65607832  0.56439381    -0.85600
O2378       O  0.75387772  0.65561191  0.93389011    -0.85300
O2379       O  0.75810307  0.85571800  0.95460392    -0.85700
O2380       O  0.85336223  0.80537046  0.01671302    -0.86000
O2381       O  0.85190227  0.69292319  0.00540152    -0.87300
Zr2382     Zr  0.75403876  0.82142355  0.00896034     2.83100
Zr2383     Zr  0.74977555  0.67878918  0.99481568     2.83500
Zr2384     Zr  0.75228230  0.75769724  0.56802697     2.84100
Zr2385     Zr  0.75863390  0.75722402  0.93165026     2.83400
Zr2386     Zr  0.82235341  0.74908198  0.01037150     2.84200
O2387       O  0.78969533  0.71783683  0.96776456    -1.07900
O2388       O  0.78903033  0.78863825  0.52846736    -1.07400
C2389       C  0.84440861  0.83817632  0.01676017     1.07300
C2390       C  0.84242054  0.66094128  0.99950393     1.09900
C2391       C  0.75333405  0.85088213  0.57747856     1.07500
C2392       C  0.76063297  0.84885102  0.92142725     1.07800
C2393       C  0.75683942  0.66940723  0.90271684     1.07400
C2394       C  0.75125110  0.66948023  0.59602610     1.07000
C2395       C  0.84517683  0.76098581  0.58163084     1.07400
C2396       C  0.85253756  0.75474553  0.92489112     1.06900
H2397       H  0.80354833  0.70530080  0.54996802     0.33600
O2398       O  0.78806315  0.71846541  0.53447128    -1.29000
H2399       H  0.80881254  0.80360503  0.96173856     0.33600
O2400       O  0.79210576  0.78829844  0.97355558    -1.30400
C2401       C  0.75084230  0.60985296  0.62683578    -0.15700
C2402       C  0.75028942  0.64553324  0.62802700    -0.30900
H2403       H  0.75187299  0.59768143  0.60104980     0.13300
H2404       H  0.74931123  0.65805114  0.65365411     0.13900
C2405       C  0.75414760  0.88107868  0.63608573    -0.15700
C2406       C  0.75261536  0.88275397  0.60083748    -0.30900
H2407       H  0.75646197  0.85521758  0.64801199     0.13300
H2408       H  0.75091554  0.90841614  0.58843099     0.13900
C2409       C  0.76521962  0.87696112  0.86219334    -0.15700
C2410       C  0.76218088  0.87986648  0.89737127    -0.30900
H2411       H  0.76706517  0.85088306  0.85070248     0.13300
H2412       H  0.76006321  0.90584839  0.90900804     0.13900
C2413       C  0.75773817  0.61041366  0.87278455    -0.15700
C2414       C  0.75704734  0.64583579  0.87088660    -0.30900
H2415       H  0.75919543  0.59854058  0.89872585     0.13300
H2416       H  0.75608942  0.65814558  0.84516070     0.13900
C2417       C  0.86887799  0.64424850  0.75174546    -0.15700
C2418       C  0.87285525  0.60915353  0.75035853    -0.30900
H2419       H  0.84220482  0.65551032  0.75263530     0.13300
H2420       H  0.89964388  0.59814523  0.74952203     0.13900
C2421       C  0.88374543  0.86983258  0.75175533    -0.15700
C2422       C  0.88630315  0.90378314  0.74332095    -0.30900
H2423       H  0.85753250  0.85922300  0.75816618     0.13300
H2424       H  0.91217387  0.91507560  0.73688542     0.13900
C2425       C  0.62876474  0.64469794  0.75200011    -0.15700
C2426       C  0.62580969  0.60954034  0.75345278    -0.30900
H2427       H  0.65526902  0.65631276  0.75051994     0.13300
H2428       H  0.59920601  0.59817988  0.75530663     0.13900
C2429       C  0.61188979  0.87663459  0.76146194    -0.15700
C2430       C  0.64753840  0.87240874  0.76072030    -0.30900
H2431       H  0.60060953  0.90295393  0.76196301     0.13300
H2432       H  0.65898493  0.84619079  0.75970837     0.13900
C2433       C  0.87094344  0.76034769  0.64151312    -0.15700
C2434       C  0.87514047  0.76378721  0.60668634    -0.30900
H2435       H  0.84431610  0.75686537  0.65241010     0.13300
H2436       H  0.90183134  0.76697374  0.59583695     0.13900
C2437       C  0.63120408  0.75666741  0.64562001    -0.15700
C2438       C  0.62869572  0.76050273  0.61070156    -0.30900
H2439       H  0.65739840  0.75296489  0.65738891     0.13300
H2440       H  0.60231629  0.76403096  0.59926242     0.13900
C2441       C  0.60927762  0.75695384  0.87774496    -0.15700
C2442       C  0.64472709  0.76183379  0.87430435    -0.30900
H2443       H  0.59792053  0.75299876  0.90373576     0.13300
H2444       H  0.65618903  0.76576386  0.84836916     0.13900
C2445       C  0.88168723  0.76030229  0.86725363    -0.15700
C2446       C  0.88442550  0.75466269  0.90178763    -0.30900
H2447       H  0.85549087  0.76596069  0.85623642     0.13300
H2448       H  0.91038902  0.74905628  0.91327517     0.13900
C2449       C  0.87810729  0.86074758  0.48804884    -0.15700
C2450       C  0.87695223  0.89200355  0.50395756    -0.30900
H2451       H  0.90085669  0.85309419  0.02135645     0.13300
H2452       H  0.85205095  0.90062842  0.51589557     0.13900
C2453       C  0.87249811  0.60228421  0.49308734    -0.15700
C2454       C  0.87547767  0.63702585  0.49804859    -0.30900
H2455       H  0.84332104  0.58920202  0.99227885     0.13300
H2456       H  0.90199369  0.64833467  0.50099888     0.13900
C2457       C  0.63855560  0.87240685  0.49275621    -0.15700
C2458       C  0.60300145  0.86902767  0.49414988    -0.30900
H2459       H  0.65021039  0.89858221  0.49220201     0.13300
H2460       H  0.59628182  0.85170160  0.01564985     0.13900
C2461       C  0.63707665  0.62939113  0.50806364    -0.15700
C2462       C  0.60136941  0.63174065  0.50955045    -0.30900
H2463       H  0.64909416  0.60338122  0.50770468     0.13300
H2464       H  0.65607332  0.59202427  0.98678483     0.13900
C2465       C  0.87616397  0.48369776  0.89379343    -0.15700
C2466       C  0.87801442  0.49507045  0.86058449    -0.30900
H2467       H  0.85051750  0.47511488  0.90414221     0.13300
H2468       H  0.90916879  0.00946420  0.84504289     0.13900
C2469       C  0.60160529  0.48857668  0.86952871    -0.15700
C2470       C  0.63722022  0.49155778  0.87258800    -0.30900
H2471       H  0.60367503  0.98353670  0.85862900     0.13300
H2472       H  0.64885290  0.49296331  0.89871312     0.13900
C2473       C  0.60283519  0.50219815  0.63204388    -0.15700
C2474       C  0.63832971  0.50309513  0.62894581    -0.30900
H2475       H  0.65026663  0.99542639  0.59999197     0.13300
H2476       H  0.65010884  0.50515376  0.60289760     0.13900
C2477       C  0.86863915  0.48940298  0.60092340    -0.15700
C2478       C  0.87286935  0.49104600  0.63586533    -0.30900
H2479       H  0.90572743  0.00744405  0.65256630     0.13300
H2480       H  0.89969723  0.49212231  0.64678537     0.13900
C2481       C  0.49898888  0.63845835  0.87057532    -0.15700
C2482       C  0.49729524  0.60330570  0.86804235    -0.30900
H2483       H  0.00622271  0.64763585  0.89706959     0.13300
H2484       H  0.98908257  0.58942868  0.84456196     0.13900
C2485       C  0.50286868  0.86921474  0.90021003    -0.15700
C2486       C  0.49580806  0.87285881  0.86601369    -0.30900
H2487       H  0.50767843  0.84328971  0.91121618     0.13300
H2488       H  0.01302763  0.90032726  0.85161987     0.13900
C2489       C  0.49390355  0.87913994  0.61171067    -0.15700
C2490       C  0.50640808  0.88025390  0.64426264    -0.30900
H2491       H  0.99968140  0.85320550  0.59640065     0.13300
H2492       H  0.51569364  0.90508791  0.65505060     0.13900
C2493       C  0.49462761  0.60785199  0.62606454    -0.15700
C2494       C  0.50307366  0.64245105  0.62460506    -0.30900
H2495       H  0.98726502  0.59403554  0.65103431     0.13300
H2496       H  0.50801391  0.65386716  0.59889069     0.13900
loop_ 
_geom_bond_atom_site_label_1 
_geom_bond_atom_site_label_2 
_geom_bond_distance 
_geom_bond_site_symmetry_2 
_ccdc_geom_bond_type 
O1          Zr37   2.471       .  S
O1           C12   1.298       .  A
O2          Zr36   2.428   1_545  S
O2           C13   1.290       .  A
O3           Zr9   2.435   1_556  S
O3           C14   1.292       .  A
O4        Zr1257   2.460       .  S
O4           C15   1.297       .  A
O5          Zr39   2.391   1_545  S
O5           C15   1.281       .  A
O6          Zr38   2.425   1_546  S
O6           C14   1.287       .  A
O7         Zr321   2.445   1_655  S
O7           C13   1.293       .  A
O8           Zr9   2.430       .  S
O8           C12   1.289       .  A
Zr9        O1252   2.416   1_455  S
Zr9         O319   2.379   1_554  S
Zr9          O11   2.322       .  S
Zr9        O1570   2.343   1_454  S
Zr9        O1267   2.326   1_455  S
Zr9         O329   2.338   1_554  S
O10       Zr1569   2.330       .  S
O10       Zr1284   2.331   1_545  S
O10        Zr351   2.329       .  S
O11         Zr37   2.336       .  S
O11         Zr38   2.336   1_545  S
C12         C309   1.488       .  S
C13         C298   1.474       .  S
C14         C278   1.475       .  S
C15         C269   1.466       .  S
H16          O17   0.966       .  S
O17         Zr36   2.351   1_445  S
O17        Zr321   2.321       .  S
O17        Zr350   2.315       .  S
H18          O19   0.966       .  S
O19         Zr39   2.348   1_544  S
O19       Zr1257   2.332   1_554  S
O19       Zr1285   2.339       .  S
O20        Zr660   2.464       .  S
O20          C43   1.297       .  A
O21        Zr661   2.442       .  S
O21          C44   1.292       .  A
O22        Zr350   2.424   1_565  S
O22          C45   1.291       .  A
O23        Zr351   2.389       .  S
O23          C46   1.281       .  A
O24         Zr39   2.384   1_554  S
O24          C47   1.280   1_565  A
O25         Zr38   2.394       .  S
O25          C48   1.282       .  A
O26         Zr40   2.430       .  S
O26          C49   1.292       .  A
O27       Zr1288   2.449       .  S
O27          C50   1.295       .  A
O28        Zr662   2.397       .  S
O28          C49   1.282       .  A
O29        Zr663   2.420       .  S
O29          C50   1.286       .  A
O30         Zr36   2.412   1_455  S
O30          C45   1.286       .  A
O31         Zr37   2.432   1_565  S
O31          C48   1.293       .  A
O32       Zr1285   2.472       .  S
O32          C47   1.301       .  A
O33       Zr1284   2.441   1_545  S
O33          C46   1.295       .  A
O34        Zr352   2.377       .  S
O34          C43   1.279       .  A
O35         Zr40   2.423       .  S
O35          C44   1.290       .  A
Zr36        O644   2.476       .  S
Zr36       O1281   2.416   1_565  S
Zr36       O1258   2.350   1_565  S
Zr36        O666   2.331   1_655  S
Zr36       O1926   2.324       .  S
Zr37        O645   2.453   1_545  S
Zr37       O1280   2.400   1_455  S
Zr37       O1267   2.336   1_455  S
Zr37       O1913   2.352   1_445  S
Zr37        O676   2.333   1_545  S
Zr38        O334   2.384   1_554  S
Zr38        O652   2.412       .  S
Zr38        O329   2.332   1_564  S
Zr38        O978   2.329   1_554  S
Zr38        O676   2.329       .  S
Zr39        O335   2.434       .  S
Zr39        O653   2.404       .  S
Zr39        O322   2.319   1_565  S
Zr39        O665   2.340   1_556  S
Zr39        O990   2.318       .  S
Zr40       O1275   2.401   1_455  S
Zr40        O346   2.440   1_554  S
Zr40         O52   2.337       .  S
Zr40       O1289   2.341   1_455  S
Zr40        O354   2.327   1_554  S
Zr40       O1614   2.341   1_454  S
O41       Zr1909   2.336       .  S
O41        Zr663   2.337       .  S
O41       Zr1288   2.336       .  S
O42        Zr660   2.336       .  S
O42        Zr974   2.318       .  S
O42        Zr352   2.325       .  S
C43         C301   1.459       .  S
C44         C305   1.473       .  S
C45         C285   1.461       .  S
C46         C281   1.459       .  S
C47         C293   1.467       .  S
C48         C289   1.456       .  S
C49         C274   1.457       .  S
C50         C266   1.477       .  S
H51          O52   0.965       .  S
O52        Zr661   2.333       .  S
O52        Zr662   2.320       .  S
H53          O54   0.964       .  S
O54       Zr1908   2.329       .  S
O54        Zr975   2.336       .  S
O54       Zr1600   2.325       .  S
O55         Zr91   2.460   1_455  S
O55          C66   1.298       .  A
O56         Zr90   2.448       .  S
O56          C67   1.293       .  A
O57         Zr63   2.447       .  S
O57          C68   1.294       .  A
O58       Zr1311   2.415       .  S
O58          C69   1.286       .  A
O59         Zr93   2.434       .  S
O59          C69   1.293       .  A
O60         Zr92   2.390       .  S
O60          C68   1.281       .  A
O61         Zr63   2.432       .  S
O61          C67   1.293       .  A
O62         Zr63   2.446       .  S
O62          C66   1.292       .  A
Zr63       O1306   2.404   1_455  S
Zr63         O65   2.318       .  S
Zr63         O71   2.334       .  S
Zr63       O1312   2.345   1_455  S
Zr63       O1321   2.344   1_455  S
O64         Zr93   2.338       .  S
O64       Zr1311   2.344       .  S
O64       Zr1338   2.343       .  S
O65         Zr91   2.343   1_455  S
O65         Zr92   2.328       .  S
C66         C310   1.489       .  S
C67         C297   1.478       .  S
C68         C241   1.460       .  S
C69         C233   1.467       .  S
H70          O71   0.966       .  S
O71         Zr90   2.333       .  S
O71         Zr92   2.319       .  S
H72          O73   0.966       .  S
O73         Zr93   2.324       .  S
O73       Zr1311   2.345       .  S
O73       Zr1339   2.346       .  S
O74         Zr90   2.454       .  S
O74          C97   1.298       .  A
O75         Zr91   2.447       .  S
O75          C98   1.294   1_655  A
O76         Zr92   2.400       .  S
O76          C99   1.282       .  A
O77         Zr93   2.411       .  S
O77         C100   1.285       .  A
O78         Zr93   2.428       .  S
O78         C101   1.292       .  A
O79         Zr92   2.361       .  S
O79         C102   1.277       .  A
O80         Zr94   2.457       .  S
O80         C103   1.295       .  A
O81       Zr1342   2.436       .  S
O81         C104   1.294       .  A
O82         Zr92   2.390       .  S
O82         C103   1.280       .  A
O83         Zr93   2.412       .  S
O83         C104   1.284       .  A
O84         Zr90   2.430       .  S
O84          C99   1.292       .  A
O85         Zr91   2.493   1_455  S
O85         C102   1.304       .  A
O86       Zr1339   2.415       .  S
O86         C101   1.286       .  A
O87       Zr1338   2.440       .  S
O87         C100   1.295       .  A
O88         Zr94   2.399       .  S
O88          C97   1.283       .  A
O89         Zr94   2.423       .  S
O89          C98   1.290       .  A
Zr90       O1335   2.411   1_455  S
Zr90         O96   2.334       .  S
Zr90       O1312   2.342   1_455  S
Zr90       O1356   2.337   1_455  S
Zr91       O1334   2.510       .  S
Zr91        O106   2.354   1_655  S
Zr91       O1321   2.342       .  S
Zr91       O1343   2.349       .  S
Zr92         O96   2.312       .  S
Zr92        O106   2.336       .  S
Zr93         O95   2.334       .  S
Zr93        O108   2.347       .  S
Zr94       O1329   2.394   1_455  S
Zr94         O96   2.329       .  S
Zr94        O106   2.321       .  S
Zr94       O1343   2.343   1_455  S
Zr94       O1356   2.357   1_455  S
O95       Zr1339   2.340       .  S
O95       Zr1342   2.326       .  S
C97         C302   1.466       .  S
C98         C306   1.473       .  S
C99         C257   1.458       .  S
C100        C261   1.470       .  S
C101        C249   1.466       .  S
C102        C253   1.464       .  S
C103        C245   1.466       .  S
C104        C237   1.469       .  S
H105        O106   0.965       .  S
H107        O108   0.965       .  S
O108      Zr1338   2.332       .  S
O108      Zr1342   2.328       .  S
O109       Zr145   2.410       .  S
O109        C120   1.284       .  A
O110       Zr144   2.477       .  S
O110        C121   1.301       .  A
O111       Zr117   2.478       .  S
O111        C122   1.299       .  A
O112       Zr741   2.476       .  S
O112        C123   1.300       .  A
O113       Zr147   2.437       .  S
O113        C123   1.292       .  A
O114       Zr146   2.431       .  S
O114        C122   1.291       .  A
O115       Zr117   2.416       .  S
O115        C121   1.286       .  A
O116       Zr117   2.455       .  S
O116        C120   1.297       .  A
Zr117       O736   2.440       .  S
Zr117       O119   2.327       .  S
Zr117       O125   2.339       .  S
Zr117       O742   2.352       .  S
Zr117       O751   2.347       .  S
O118       Zr147   2.327       .  S
O118       Zr741   2.343       .  S
O118       Zr768   2.333   1_545  S
O119       Zr145   2.339       .  S
O119       Zr146   2.348       .  S
C120        C918   1.473       .  S
C121        C914   1.483       .  S
C122        C221   1.489       .  S
C123        C217   1.489       .  S
H124        O125   0.965       .  S
O125       Zr144   2.345       .  S
O125       Zr146   2.344       .  S
H126        O127   0.967       .  S
O127       Zr147   2.350       .  S
O127       Zr741   2.335       .  S
O127       Zr769   2.334       .  S
O128       Zr144   2.462       .  S
O128        C151   1.296       .  A
O129       Zr145   2.419       .  S
O129        C152   1.289       .  A
O130       Zr146   2.452       .  S
O130        C153   1.298       .  A
O131       Zr147   2.444       .  S
O131        C154   1.295       .  A
O132       Zr147   2.407       .  S
O132        C155   1.286       .  A
O133       Zr146   2.470       .  S
O133        C156   1.299       .  A
O134       Zr148   2.438       .  S
O134        C157   1.292       .  A
O135       Zr772   2.415   1_545  S
O135        C158   1.287       .  A
O136       Zr146   2.461       .  S
O136        C157   1.296       .  A
O137       Zr147   2.447       .  S
O137        C158   1.295       .  A
O138       Zr144   2.407       .  S
O138        C153   1.285       .  A
O139       Zr145   2.372       .  S
O139        C156   1.279       .  A
O140       Zr769   2.451       .  S
O140        C155   1.295       .  A
O141       Zr768   2.397   1_545  S
O141        C154   1.282       .  A
O142       Zr148   2.424       .  S
O142        C151   1.289       .  A
O143       Zr148   2.428       .  S
O143        C152   1.288       .  A
Zr144       O765   2.442       .  S
Zr144       O150   2.355       .  S
Zr144       O742   2.326       .  S
Zr144       O786   2.339       .  S
Zr145       O764   2.398       .  S
Zr145       O160   2.340       .  S
Zr145       O751   2.332       .  S
Zr145       O773   2.318       .  S
Zr146       O150   2.345       .  S
Zr146       O160   2.338       .  S
Zr147       O149   2.344       .  S
Zr147       O162   2.326       .  S
Zr148       O759   2.406       .  S
Zr148       O150   2.333       .  S
Zr148       O160   2.332       .  S
Zr148       O773   2.342       .  S
Zr148       O786   2.354       .  S
O149       Zr769   2.319       .  S
O149       Zr772   2.317   1_545  S
C151        C910   1.480       .  S
C152        C906   1.469       .  S
C153        C246   1.470       .  S
C154        C242   1.465       .  S
C155        C234   1.466       .  S
C156        C238   1.459       .  S
C157        C225   1.488       .  S
C158        C229   1.469       .  S
H159        O160   0.966       .  S
H161        O162   0.966       .  S
O162       Zr768   2.319   1_545  S
O162       Zr772   2.334   1_545  S
O163       Zr199   2.419       .  S
O163        C174   1.287       .  A
O164       Zr198   2.421       .  S
O164        C175   1.291       .  A
O165       Zr483   2.388   1_554  S
O165        C176   1.279       .  A
O166       Zr171   2.409       .  S
O166        C177   1.285       .  A
O167       Zr201   2.435       .  S
O167        C177   1.293       .  A
O168       Zr200   2.466       .  S
O168        C176   1.300       .  A
O169       Zr171   2.442       .  S
O169        C175   1.291       .  A
O170       Zr171   2.452       .  S
O170        C174   1.297       .  A
Zr171       O477   2.453       .  S
Zr171       O172   2.343       .  S
Zr171       O181   2.345       .  S
Zr171       O485   2.328       .  S
Zr171       O491   2.335       .  S
O172       Zr198   2.332       .  S
O172       Zr201   2.338       .  S
O173       Zr200   2.334       .  S
O173       Zr483   2.322   1_554  S
O173       Zr511   2.348   1_554  S
C174        C589   1.472       .  S
C175        C585   1.473       .  S
C176        C254   1.471       .  S
C177        C258   1.460       .  S
H178        O179   0.965       .  S
O179       Zr200   2.330       .  S
O179       Zr483   2.332   1_554  S
O179       Zr510   2.355       .  S
H180        O181   0.965       .  S
O181       Zr199   2.340       .  S
O181       Zr201   2.344       .  S
O182       Zr198   2.427       .  S
O182        C205   1.289       .  A
O183       Zr199   2.451       .  S
O183        C206   1.298       .  A
O184       Zr200   2.467       .  S
O184        C207   1.298       .  A
O185       Zr201   2.431       .  S
O185        C208   1.291       .  A
O186       Zr201   2.413       .  S
O186        C209   1.286       .  A
O187       Zr200   2.461       .  S
O187        C210   1.298       .  A
O188       Zr514   2.433       .  S
O188        C211   1.292       .  A
O189       Zr202   2.390       .  S
O189        C212   1.282       .  A
O190       Zr200   2.415       .  S
O190        C211   1.287       .  A
O191       Zr201   2.459       .  S
O191        C212   1.296       .  A
O192       Zr510   2.443       .  S
O192        C207   1.294       .  A
O193       Zr511   2.457   1_554  S
O193        C210   1.296       .  A
O194       Zr199   2.462       .  S
O194        C209   1.298       .  A
O195       Zr198   2.471       .  S
O195        C208   1.298       .  A
O196       Zr202   2.416       .  S
O196        C205   1.288       .  A
O197       Zr202   2.404       .  S
O197        C206   1.283       .  A
Zr198       O504   2.454       .  S
Zr198       O216   2.339       .  S
Zr198       O491   2.349       .  S
Zr198       O516   2.342       .  S
Zr199       O505   2.447       .  S
Zr199       O203   2.334       .  S
Zr199       O485   2.347       .  S
Zr199       O526   2.337       .  S
Zr200       O204   2.349       .  S
Zr200       O214   2.355       .  S
Zr201       O203   2.338       .  S
Zr201       O216   2.337       .  S
Zr202       O500   2.401       .  S
Zr202       O203   2.336       .  S
Zr202       O216   2.333       .  S
Zr202       O516   2.321       .  S
Zr202       O526   2.336       .  S
O204       Zr510   2.337       .  S
O204       Zr514   2.317       .  S
C205        C577   1.465       .  S
C206        C582   1.471       .  S
C207        C222   1.488       .  S
C208        C226   1.488       .  S
C209        C230   1.474       .  S
C210        C218   1.492       .  S
C211        C250   1.463       .  S
C212        C262   1.461       .  S
H213        O214   0.965       .  S
O214       Zr511   2.348   1_554  S
O214       Zr514   2.334       .  S
H215        O216   0.966       .  S
C217        C218   1.347       .  D
C217        H219   1.087       .  S
C218        H220   1.086       .  S
C221        C222   1.355       .  D
C221        H223   1.086       .  S
C222        H224   1.087       .  S
C225        C226   1.354       .  D
C225        H227   1.086       .  S
C226        H228   1.086       .  S
C229        C230   1.337       .  D
C229        H231   1.087       .  S
C230        H232   1.087       .  S
C233        C234   1.338       .  D
C233        H235   1.087       .  S
C234        H236   1.088       .  S
C237        C238   1.332       .  D
C237        H239   1.086       .  S
C238        H240   1.088       .  S
C241        C242   1.333       .  D
C241        H243   1.087       .  S
C242        H244   1.087       .  S
C245        C246   1.333       .  D
C245        H247   1.088       .  S
C246        H248   1.087       .  S
C249        C250   1.339       .  D
C249        H251   1.087       .  S
C250        H252   1.087       .  S
C253        C254   1.326       .  D
C253        H255   1.088       .  S
C254        H256   1.087       .  S
C257        C258   1.335       .  D
C257        H259   1.087       .  S
C258        H260   1.087       .  S
C261        C262   1.336       .  D
C261        H263   1.087       .  S
C262        H264   1.088       .  S
C265        C517   1.472       .  S
C265        C266   1.339       .  D
C265        H579   1.087       .  S
C266        H268   1.087       .  S
H267        C577   1.087       .  S
C269        C270   1.332       .  D
C269        H583   1.087       .  S
C270        C518   1.468       .  S
C270        H272   1.087       .  S
H271        C581   1.088       .  S
C273        C487   1.454       .  S
C273        C274   1.332       .  D
C273        H275   1.088       .  S
C274        H588   1.087       .  S
H276        C586   1.087       .  S
C277        C486   1.467       .  S
C277        C278   1.340       .  D
C277        H279   1.087       .  S
C278        H592   1.087       .  S
H280        C590   1.088       .  S
C281        C282   1.331       .  D
C281        H283   1.087       .  S
C282        C776   1.458       .  S
C282        H908   1.087   1_545  S
H284        C906   1.087       .  S
C285        C286   1.338       .  D
C285        H911   1.087       .  S
C286        C775   1.459       .  S
C286        H288   1.087       .  S
H287        C909   1.086       .  S
C289        C290   1.332       .  D
C289        H915   1.087       .  S
C290        C745   1.456       .  S
C290        H292   1.087   1_565  S
H291        C913   1.087       .  S
C293        C294   1.326       .  D
C293        H919   1.087   1_545  S
C294        C744   1.460       .  S
C294        H296   1.088       .  S
H295        C917   1.088       .  S
C297        C298   1.346   1_455  D
C297       H1547   1.087       .  S
C298       H1548   1.087       .  S
H299       C1545   1.087       .  S
H300       C1546   1.087       .  S
C301        C302   1.331       .  D
C301        H303   1.088       .  S
C302       H1552   1.087       .  S
H304       C1550   1.086       .  S
C305        C306   1.347       .  D
C305       H1555   1.087       .  S
C306        H308   1.087   1_455  S
H307       C1553   1.086       .  S
C309        C310   1.345       .  D
C309       H1559   1.087       .  S
C310        H312   1.086       .  S
H311       C1557   1.087       .  S
O313       Zr349   2.498       .  S
O313        C324   1.306       .  A
O314       Zr348   2.535   1_445  S
O314        C325   1.312       .  A
O315       Zr321   2.395       .  S
O315        C326   1.281       .  A
O316      Zr1569   2.478       .  S
O316        C327   1.299       .  A
O317       Zr351   2.363       .  S
O317        C327   1.276       .  A
O318       Zr350   2.453       .  S
O318        C326   1.294       .  A
O319        C325   1.280       .  A
O320       Zr321   2.405       .  S
O320        C324   1.284       .  A
Zr321      O1564   2.388   1_455  S
Zr321      O1258   2.326   1_455  S
Zr321       O323   2.337       .  S
Zr321      O1579   2.343   1_455  S
O322      Zr1257   2.331       .  S
O322      Zr1596   2.332   1_545  S
O323       Zr349   2.359       .  S
O323       Zr350   2.318       .  S
C324        C621   1.479       .  S
C325        C610   1.494       .  S
C326        C590   1.468       .  S
C327        C581   1.461       .  S
H328        O329   0.966       .  S
O329       Zr348   2.345   1_445  S
H330        O331   0.967       .  S
O331      Zr1569   2.353       .  S
O331      Zr1597   2.353       .  S
O331       Zr351   2.334       .  S
O332       Zr972   2.482       .  S
O332        C355   1.302       .  A
O333       Zr973   2.474       .  S
O333        C356   1.300       .  A
O334        C357   1.281       .  A
O335        C358   1.292       .  A
O336       Zr351   2.391       .  S
O336        C359   1.281       .  A
O337       Zr350   2.410       .  S
O337        C360   1.285       .  A
O338       Zr352   2.440       .  S
O338        C361   1.291       .  A
O339      Zr1600   2.437       .  S
O339        C362   1.291       .  A
O340       Zr974   2.413       .  S
O340        C361   1.286       .  A
O341       Zr975   2.411       .  S
O341        C362   1.288       .  A
O342       Zr348   2.468   1_455  S
O342        C357   1.299       .  A
O343       Zr349   2.478       .  S
O343        C360   1.303       .  A
O344      Zr1597   2.488       .  S
O344        C359   1.302       .  A
O345      Zr1596   2.412       .  S
O345        C358   1.286       .  A
O346        C355   1.291       .  A
O347       Zr352   2.385       .  S
O347        C356   1.280   1_455  A
Zr348       O956   2.505       .  S
Zr348      O1593   2.446   1_565  S
Zr348      O1570   2.347   1_565  S
Zr348       O978   2.347   1_655  S
Zr348      O2238   2.370       .  S
Zr349       O957   2.532   1_545  S
Zr349      O1592   2.454   1_455  S
Zr349      O1579   2.361   1_455  S
Zr349      O2225   2.346   1_445  S
Zr349       O988   2.337   1_545  S
Zr350       O964   2.373   1_545  S
Zr350       O666   2.348   1_545  S
Zr350       O988   2.353   1_545  S
Zr351       O965   2.405   1_545  S
Zr351       O977   2.317   1_545  S
Zr351       O678   2.318   1_545  S
Zr352      O1587   2.410   1_455  S
Zr352      O1601   2.337   1_455  S
Zr352      O1302   2.343   1_455  S
Zr352       O364   2.321       .  S
O353      Zr2221   2.322       .  S
O353       Zr975   2.337       .  S
O353      Zr1600   2.337       .  S
O354       Zr972   2.350       .  S
O354       Zr662   2.343   1_556  S
C355        C613   1.497       .  S
C356        C617   1.469       .  S
C357        C597   1.464       .  S
C358        C593   1.468       .  S
C359        C605   1.479       .  S
C360        C601   1.482       .  S
C361        C586   1.469       .  S
C362        C578   1.465       .  S
H363        O364   0.966       .  S
O364       Zr973   2.344   1_455  S
O364       Zr974   2.334       .  S
H365        O366   0.965       .  S
O366      Zr2220   2.329       .  S
O366       Zr663   2.335   1_556  S
O366      Zr1288   2.339   1_556  S
O367       Zr403   2.506       .  S
O367        C378   1.306       .  A
O368       Zr402   2.523       .  S
O368        C379   1.310       .  A
O369       Zr375   2.466       .  S
O369        C380   1.297       .  A
O370      Zr1623   2.423       .  S
O370        C381   1.287       .  A
O371       Zr405   2.423       .  S
O371        C381   1.289       .  A
O372       Zr404   2.359       .  S
O372        C380   1.275       .  A
O373       Zr375   2.406       .  S
O373        C379   1.284       .  A
O374       Zr375   2.389   1_655  S
O374        C378   1.281       .  A
Zr375      O1618   2.408   1_455  S
Zr375      O1624   2.343   1_455  S
Zr375       O377   2.321       .  S
Zr375      O1633   2.347   1_455  S
Zr375       O383   2.315       .  S
O376      Zr1623   2.332       .  S
O376      Zr1650   2.346       .  S
O376       Zr405   2.324       .  S
O377       Zr403   2.353   1_455  S
O377       Zr404   2.324       .  S
C378        C622   1.477       .  S
C379        C609   1.498       .  S
C380        C553   1.457       .  S
C381        C545   1.470       .  S
H382        O383   0.967       .  S
O383       Zr402   2.362       .  S
O383       Zr404   2.352       .  S
H384        O385   0.965       .  S
O385      Zr1623   2.341       .  S
O385      Zr1651   2.361       .  S
O385       Zr405   2.330       .  S
O386       Zr402   2.505       .  S
O386        C409   1.305       .  A
O387       Zr403   2.485       .  S
O387        C410   1.304       .  A
O388       Zr404   2.412       .  S
O388        C411   1.286       .  A
O389       Zr405   2.401       .  S
O389        C412   1.283       .  A
O390       Zr405   2.384       .  S
O390        C413   1.281       .  A
O391       Zr404   2.462       .  S
O391        C414   1.297       .  A
O392       Zr406   2.460       .  S
O392        C415   1.295       .  A
O393      Zr1654   2.452       .  S
O393        C416   1.296       .  A
O394       Zr404   2.388       .  S
O394        C415   1.279       .  A
O395       Zr405   2.415       .  S
O395        C416   1.285       .  A
O396       Zr402   2.487       .  S
O396        C411   1.305       .  A
O397       Zr403   2.419   1_455  S
O397        C414   1.289       .  A
O398      Zr1651   2.477       .  S
O398        C413   1.301       .  A
O399      Zr1650   2.442       .  S
O399        C412   1.294       .  A
O400       Zr406   2.416       .  S
O400        C409   1.287       .  A
O401       Zr406   2.385   1_655  S
O401        C410   1.281       .  A
Zr402      O1647   2.507   1_455  S
Zr402      O1624   2.349   1_455  S
Zr402       O408   2.367       .  S
Zr402      O1668   2.352   1_455  S
Zr403      O1646   2.486       .  S
Zr403      O1633   2.324       .  S
Zr403      O1655   2.335       .  S
Zr403       O418   2.375   1_655  S
Zr404       O408   2.337       .  S
Zr404       O418   2.320       .  S
Zr405       O407   2.340       .  S
Zr405       O420   2.335       .  S
Zr406      O1641   2.371   1_455  S
Zr406      O1655   2.355   1_455  S
Zr406       O408   2.305       .  S
Zr406      O1668   2.342   1_455  S
Zr406       O418   2.329       .  S
O407      Zr1651   2.353       .  S
O407      Zr1654   2.335       .  S
C409        C614   1.493       .  S
C410        C618   1.471       .  S
C411        C569   1.480       .  S
C412        C573   1.461       .  S
C413        C561   1.465       .  S
C414        C565   1.477       .  S
C415        C557   1.470       .  S
C416        C549   1.477       .  S
H417        O418   0.968       .  S
H419        O420   0.965       .  S
O420      Zr1650   2.332       .  S
O420      Zr1654   2.315       .  S
O421       Zr457   2.399       .  S
O421        C432   1.283       .  A
O422       Zr456   2.448       .  S
O422        C433   1.294       .  A
O423       Zr429   2.430       .  S
O423        C434   1.289       .  A
O424      Zr1053   2.474       .  S
O424        C435   1.300       .  A
O425       Zr459   2.457       .  S
O425        C435   1.296       .  A
O426       Zr458   2.468       .  S
O426        C434   1.298       .  A
O427       Zr429   2.420       .  S
O427        C433   1.287       .  A
O428       Zr429   2.430       .  S
O428        C432   1.290       .  A
Zr429      O1048   2.389       .  S
Zr429      O1054   2.343       .  S
Zr429       O431   2.319       .  S
Zr429      O1063   2.340       .  S
Zr429       O437   2.333       .  S
O430      Zr1053   2.360       .  S
O430      Zr1080   2.325   1_545  S
O430       Zr459   2.340       .  S
O431       Zr457   2.328       .  S
O431       Zr458   2.337       .  S
C432       C1230   1.458       .  S
C433       C1226   1.472       .  S
C434        C533   1.484       .  S
C435        C529   1.493       .  S
H436        O437   0.966       .  S
O437       Zr456   2.354       .  S
O437       Zr458   2.349       .  S
H438        O439   0.965       .  S
O439      Zr1053   2.359       .  S
O439      Zr1081   2.332       .  S
O439       Zr459   2.349       .  S
O440       Zr456   2.436       .  S
O440        C463   1.290       .  A
O441       Zr457   2.378       .  S
O441        C464   1.279       .  A
O442       Zr458   2.456       .  S
O442        C465   1.298       .  A
O443       Zr459   2.447       .  S
O443        C466   1.295       .  A
O444       Zr459   2.417       .  S
O444        C467   1.287       .  A
O445       Zr458   2.463       .  S
O445        C468   1.297       .  A
O446       Zr460   2.469       .  S
O446        C469   1.298       .  A
O447      Zr1084   2.438   1_545  S
O447        C470   1.293       .  A
O448       Zr458   2.450       .  S
O448        C469   1.295       .  A
O449       Zr459   2.480       .  S
O449        C470   1.301       .  A
O450       Zr456   2.417       .  S
O450        C465   1.287       .  A
O451       Zr457   2.398       .  S
O451        C468   1.283       .  A
O452      Zr1081   2.440       .  S
O452        C467   1.292       .  A
O453      Zr1080   2.388   1_545  S
O453        C466   1.279       .  A
O454       Zr460   2.478       .  S
O454        C463   1.301       .  A
O455       Zr460   2.473       .  S
O455        C464   1.299       .  A
Zr456      O1077   2.460       .  S
Zr456      O1054   2.329       .  S
Zr456       O462   2.346       .  S
Zr456      O1098   2.339       .  S
Zr457      O1076   2.413       .  S
Zr457      O1063   2.324       .  S
Zr457      O1085   2.331       .  S
Zr457       O472   2.329       .  S
Zr458       O462   2.350       .  S
Zr458       O472   2.345       .  S
Zr459       O461   2.341       .  S
Zr459       O474   2.340       .  S
Zr460      O1071   2.440       .  S
Zr460      O1085   2.357       .  S
Zr460       O462   2.340       .  S
Zr460      O1098   2.357       .  S
Zr460       O472   2.337       .  S
O461      Zr1081   2.322       .  S
O461      Zr1084   2.351   1_545  S
C463       C1222   1.495       .  S
C464       C1218   1.463       .  S
C465        C558   1.474       .  S
C466        C554   1.461       .  S
C467        C546   1.467       .  S
C468        C550   1.467       .  S
C469        C537   1.491       .  S
C470        C541   1.490       .  S
H471        O472   0.965       .  S
H473        O474   0.966       .  S
O474      Zr1080   2.322   1_545  S
O474      Zr1084   2.345   1_545  S
O475       Zr511   2.445       .  S
O475        C486   1.294       .  A
O476       Zr510   2.434       .  S
O476        C487   1.293       .  A
O477        C488   1.296       .  A
O478       Zr483   2.390       .  S
O478        C489   1.280       .  A
O479       Zr513   2.485       .  S
O479        C489   1.301       .  A
O480       Zr512   2.432       .  S
O480        C488   1.290       .  A
O481       Zr483   2.393   1_554  S
O481        C487   1.282       .  A
O482       Zr483   2.414       .  S
O482        C486   1.286       .  A
Zr483       O484   2.333       .  S
Zr483       O493   2.319       .  S
O484       Zr510   2.349   1_556  S
O484       Zr513   2.337       .  S
O485       Zr512   2.338       .  S
C488        C566   1.478       .  S
C489        C570   1.474       .  S
H490        O491   0.965       .  S
O491       Zr512   2.351       .  S
H492        O493   0.966       .  S
O493       Zr511   2.347       .  S
O493       Zr513   2.339       .  S
O494       Zr510   2.458       .  S
O494        C517   1.295       .  A
O495       Zr511   2.461       .  S
O495        C518   1.298       .  A
O496       Zr512   2.444       .  S
O496        C519   1.293       .  A
O497       Zr513   2.461       .  S
O497        C520   1.298       .  A
O498       Zr513   2.452       .  S
O498        C521   1.295       .  A
O499       Zr512   2.469       .  S
O499        C522   1.299       .  A
O500        C523   1.283       .  A
O501       Zr514   2.401   1_556  S
O501        C524   1.284       .  A
O502       Zr512   2.453       .  S
O502        C523   1.297       .  A
O503       Zr513   2.447       .  S
O503        C524   1.296       .  A
O504        C519   1.297       .  A
O505        C522   1.294       .  A
O506       Zr511   2.467       .  S
O506        C521   1.299       .  A
O507       Zr510   2.460   1_556  S
O507        C520   1.296       .  A
O508       Zr514   2.410       .  S
O508        C517   1.285       .  A
O509       Zr514   2.395   1_556  S
O509        C518   1.282       .  A
Zr510       O528   2.335   1_554  S
Zr511       O515   2.336       .  S
Zr512       O516   2.344       .  S
Zr512       O526   2.332       .  S
Zr513       O515   2.353       .  S
Zr513       O528   2.358       .  S
Zr514       O515   2.341   1_554  S
Zr514       O528   2.339   1_554  S
C519        C534   1.484       .  S
C520        C538   1.494       .  S
C521        C542   1.492       .  S
C522        C530   1.495       .  S
C523        C562   1.468       .  S
C524        C574   1.461       .  S
H525        O526   0.965       .  S
H527        O528   0.966       .  S
C529        C530   1.349       .  D
C529        H531   1.087       .  S
C530        H532   1.087       .  S
C533        C534   1.345       .  D
C533        H535   1.087       .  S
C534        H536   1.086       .  S
C537        C538   1.351       .  D
C537        H539   1.087       .  S
C538        H540   1.087       .  S
C541        C542   1.348       .  D
C541        H543   1.087       .  S
C542        H544   1.086       .  S
C545        C546   1.341       .  D
C545        H547   1.087       .  S
C546        H548   1.087       .  S
C549        C550   1.336       .  D
C549        H551   1.087       .  S
C550        H552   1.088       .  S
C553        C554   1.329       .  D
C553        H555   1.088       .  S
C554        H556   1.087       .  S
C557        C558   1.335       .  D
C557        H559   1.087       .  S
C558        H560   1.087       .  S
C561        C562   1.331       .  D
C561        H563   1.088       .  S
C562        H564   1.087       .  S
C565        C566   1.343       .  D
C565        H567   1.087       .  S
C566        H568   1.087       .  S
C569        C570   1.334       .  D
C569        H571   1.087       .  S
C570        H572   1.087       .  S
C573        C574   1.334       .  D
C573        H575   1.087       .  S
C574        H576   1.087       .  S
C577        C578   1.345       .  D
C578        H580   1.087       .  S
C581        C582   1.330       .  D
C582        H584   1.087       .  S
C585        C586   1.343       .  D
C585        H587   1.087       .  S
C589        C590   1.337       .  D
C589        H591   1.087       .  S
C593        C594   1.340   1_565  D
C593        H595   1.087       .  S
C594       C1088   1.466       .  S
C594       H1220   1.087       .  S
H596       C1218   1.088       .  S
C597        C598   1.332       .  D
C597       H1223   1.088       .  S
C598       C1087   1.470       .  S
C598        H600   1.087       .  S
H599       C1221   1.087       .  S
C601        C602   1.332   1_545  D
C601       H1227   1.087       .  S
C602       C1057   1.473       .  S
C602        H604   1.088       .  S
H603       C1225   1.087       .  S
C605        C606   1.334       .  D
C605       H1231   1.088       .  S
C606       C1056   1.486       .  S
C606        H608   1.087       .  S
H607       C1229   1.087       .  S
C609        C610   1.335       .  D
C609       H1859   1.087       .  S
C610       H1860   1.088       .  S
H611       C1857   1.087       .  S
H612       C1858   1.087       .  S
C613        C614   1.343       .  D
C613        H615   1.086       .  S
C614       H1864   1.087       .  S
H616       C1862   1.087       .  S
C617        C618   1.328       .  D
C617       H1867   1.088       .  S
C618        H620   1.088       .  S
H619       C1865   1.087       .  S
C621        C622   1.333   1_455  D
C621       H1871   1.087       .  S
C622        H624   1.087       .  S
H623       C1869   1.087       .  S
O625       Zr661   2.436   1_655  S
O625        C636   1.291       .  A
O626       Zr660   2.430       .  S
O626        C637   1.290       .  A
O627       Zr633   2.476   1_455  S
O627        C638   1.300       .  A
O628      Zr1881   2.452       .  S
O628        C639   1.294       .  A
O629       Zr663   2.416       .  S
O629        C639   1.288   1_554  A
O630       Zr662   2.380   1_556  S
O630        C638   1.280       .  A
O631       Zr945   2.489   1_455  S
O631        C637   1.303       .  A
O632       Zr633   2.480   1_554  S
O632        C636   1.301       .  A
Zr633      O1876   2.475       .  S
Zr633       O943   2.496       .  S
Zr633      O2194   2.348       .  S
Zr633       O635   2.355   1_656  S
Zr633      O1891   2.365   1_556  S
Zr633       O953   2.356   1_655  S
O634      Zr2193   2.347       .  S
O634      Zr1908   2.356       .  S
O634       Zr975   2.332       .  S
O635       Zr661   2.337       .  S
O635       Zr662   2.332       .  S
C636        C933   1.492       .  S
C637        C922   1.491       .  S
C638        C902   1.463       .  S
C639        C893   1.475       .  S
H640        O641   0.965       .  S
O641       Zr945   2.357   1_455  S
O641       Zr660   2.350       .  S
O641       Zr974   2.341       .  S
H642        O643   0.966       .  S
O643      Zr1881   2.348   1_554  S
O643      Zr1909   2.347       .  S
O643       Zr663   2.333       .  S
O644        C667   1.299       .  A
O645        C668   1.295   1_455  A
O646       Zr974   2.468       .  S
O646        C669   1.297       .  A
O647       Zr975   2.434       .  S
O647        C670   1.292       .  A
O648       Zr663   2.385       .  S
O648        C671   1.280       .  A
O649       Zr662   2.483       .  S
O649        C672   1.300       .  A
O650       Zr664   2.429   1_455  S
O650        C673   1.289       .  A
O651      Zr1912   2.459       .  S
O651        C674   1.295       .  A
O652        C673   1.288       .  A
O653        C674   1.284   1_556  A
O654       Zr660   2.412       .  S
O654        C669   1.287       .  A
O655       Zr661   2.395       .  S
O655        C672   1.282       .  A
O656      Zr1909   2.466       .  S
O656        C671   1.297       .  A
O657      Zr1908   2.427       .  S
O657        C670   1.289       .  A
O658       Zr976   2.412   1_655  S
O658        C667   1.286       .  A
O659       Zr664   2.447       .  S
O659        C668   1.294       .  A
Zr660      O1905   2.430   1_455  S
Zr660      O1882   2.339   1_455  S
Zr660      O1302   2.334   1_455  S
Zr661      O1904   2.390   1_455  S
Zr661      O1891   2.337   1_455  S
Zr661      O1289   2.330   1_455  S
Zr662       O958   2.430   1_554  S
Zr662       O953   2.357   1_554  S
Zr663       O959   2.398   1_554  S
Zr663       O946   2.330   1_554  S
Zr664      O1899   2.433       .  S
Zr664       O970   2.424   1_554  S
Zr664      O1913   2.333       .  S
Zr664       O978   2.343   1_654  S
Zr664      O2238   2.348   1_554  S
Zr664       O676   2.338   1_655  S
O665      Zr1285   2.334   1_565  S
O665      Zr1912   2.318       .  S
O666       Zr976   2.327       .  S
C667        C925   1.481       .  S
C668        C929   1.484       .  S
C669        C909   1.480       .  S
C670        C905   1.468       .  S
C671        C917   1.464       .  S
C672        C913   1.478       .  S
C673        C898   1.465       .  S
C674        C890   1.468       .  S
H675        O676   0.963       .  S
H677        O678   0.966       .  S
O678      Zr1284   2.326       .  S
O678      Zr2224   2.311       .  S
O679       Zr715   2.433   1_655  S
O679        C690   1.292       .  A
O680       Zr714   2.446       .  S
O680        C691   1.293   1_455  A
O681       Zr687   2.435   1_455  S
O681        C692   1.291       .  A
O682      Zr1935   2.477       .  S
O682        C693   1.300       .  A
O683       Zr717   2.382       .  S
O683        C693   1.280       .  A
O684       Zr716   2.441       .  S
O684        C692   1.293       .  A
O685       Zr687   2.482       .  S
O685        C691   1.302       .  A
O686       Zr687   2.483       .  S
O686        C690   1.301       .  A
Zr687      O1930   2.478       .  S
Zr687      O1936   2.336       .  S
Zr687       O689   2.350   1_655  S
Zr687      O1945   2.340       .  S
Zr687       O695   2.357   1_655  S
O688      Zr1935   2.347       .  S
O688      Zr1962   2.335       .  S
O688       Zr717   2.344       .  S
O689       Zr715   2.328       .  S
O689       Zr716   2.322       .  S
C690        C934   1.492       .  S
C691        C921   1.496       .  S
C692        C865   1.478       .  S
C693        C857   1.463       .  S
H694        O695   0.965       .  S
O695       Zr714   2.334       .  S
O695       Zr716   2.319       .  S
H696        O697   0.965       .  S
O697      Zr1935   2.359       .  S
O697      Zr1963   2.333       .  S
O697       Zr717   2.333       .  S
O698       Zr714   2.473       .  S
O698        C721   1.300       .  A
O699       Zr715   2.467       .  S
O699        C722   1.297       .  A
O700       Zr716   2.399       .  S
O700        C723   1.282       .  A
O701       Zr717   2.416       .  S
O701        C724   1.285       .  A
O702       Zr717   2.440       .  S
O702        C725   1.292       .  A
O703       Zr716   2.380       .  S
O703        C726   1.279       .  A
O704       Zr718   2.477       .  S
O704        C727   1.303       .  A
O705      Zr1966   2.452       .  S
O705        C728   1.296       .  A
O706       Zr716   2.409       .  S
O706        C727   1.284       .  A
O707       Zr717   2.418       .  S
O707        C728   1.287       .  A
O708       Zr714   2.451       .  S
O708        C723   1.294       .  A
O709       Zr715   2.456       .  S
O709        C726   1.296       .  A
O710      Zr1963   2.440       .  S
O710        C725   1.290       .  A
O711      Zr1962   2.461       .  S
O711        C724   1.298       .  A
O712       Zr718   2.424       .  S
O712        C721   1.288       .  A
O713       Zr718   2.432       .  S
O713        C722   1.292       .  A
Zr714      O1959   2.371   1_455  S
Zr714      O1936   2.361   1_455  S
Zr714       O720   2.325       .  S
Zr714      O1980   2.349   1_455  S
Zr715      O1958   2.381   1_455  S
Zr715      O1945   2.363   1_455  S
Zr715      O1967   2.344   1_455  S
Zr715       O730   2.317       .  S
Zr716       O720   2.347       .  S
Zr716       O730   2.346       .  S
Zr717       O719   2.322       .  S
Zr717       O732   2.339       .  S
Zr718      O1953   2.500   1_455  S
Zr718      O1967   2.338   1_455  S
Zr718       O720   2.364       .  S
Zr718      O1980   2.343   1_455  S
Zr718       O730   2.353       .  S
O719      Zr1963   2.333       .  S
O719      Zr1966   2.347       .  S
C721        C926   1.485       .  S
C722        C930   1.489       .  S
C723        C881   1.467       .  S
C724        C885   1.479       .  S
C725        C873   1.483       .  S
C726        C877   1.460       .  S
C727        C869   1.477       .  S
C728        C861   1.475       .  S
H729        O730   0.965       .  S
H731        O732   0.965       .  S
O732      Zr1962   2.331       .  S
O732      Zr1966   2.340       .  S
O733       Zr769   2.363       .  S
O733        C744   1.276       .  A
O734       Zr768   2.394       .  S
O734        C745   1.282       .  A
O735       Zr741   2.446   1_565  S
O735        C746   1.294       .  A
O736        C747   1.293       .  A
O737       Zr771   2.486       .  S
O737        C747   1.302       .  A
O738       Zr770   2.466       .  S
O738        C746   1.299       .  A
O739       Zr741   2.438       .  S
O739        C745   1.294   1_545  A
O740       Zr741   2.470       .  S
O740        C744   1.299       .  A
Zr741       O743   2.334   1_545  S
Zr741       O749   2.356   1_545  S
O742       Zr771   2.347       .  S
O743       Zr769   2.332   1_565  S
O743       Zr770   2.355       .  S
C746        C845   1.486       .  S
C747        C841   1.495       .  S
H748        O749   0.965       .  S
O749       Zr768   2.339       .  S
O749       Zr770   2.342       .  S
H750        O751   0.966       .  S
O751       Zr771   2.343       .  S
O752       Zr768   2.431       .  S
O752        C775   1.291       .  A
O753       Zr769   2.386       .  S
O753        C776   1.279       .  A
O754       Zr770   2.493       .  S
O754        C777   1.303       .  A
O755       Zr771   2.438       .  S
O755        C778   1.292       .  A
O756       Zr771   2.460       .  S
O756        C779   1.299       .  A
O757       Zr770   2.458       .  S
O757        C780   1.298       .  A
O758       Zr772   2.389       .  S
O758        C781   1.282       .  A
O759        C782   1.284       .  A
O760       Zr770   2.487       .  S
O760        C781   1.303       .  A
O761       Zr771   2.503       .  S
O761        C782   1.307       .  A
O762       Zr768   2.380       .  S
O762        C777   1.279       .  A
O763       Zr769   2.428   1_565  S
O763        C780   1.289       .  A
O764        C779   1.281       .  A
O765        C778   1.294       .  A
O766       Zr772   2.403       .  S
O766        C775   1.284       .  A
O767       Zr772   2.441   1_545  S
O767        C776   1.293       .  A
Zr768       O774   2.323       .  S
Zr769       O784   2.331   1_545  S
Zr770       O774   2.342       .  S
Zr770       O784   2.359       .  S
Zr771       O773   2.338       .  S
Zr771       O786   2.343       .  S
Zr772       O774   2.346       .  S
Zr772       O784   2.327       .  S
C777        C870   1.473       .  S
C778        C866   1.476       .  S
C779        C858   1.468       .  S
C780        C862   1.476       .  S
C781        C849   1.471       .  S
C782        C853   1.487       .  S
H783        O784   0.965       .  S
H785        O786   0.965       .  S
O787       Zr823   2.503       .  S
O787        C798   1.307       .  A
O788       Zr822   2.505       .  S
O788        C799   1.306       .  A
O789      Zr1107   2.398   1_554  S
O789        C800   1.282       .  A
O790       Zr795   2.411       .  S
O790        C801   1.284       .  A
O791       Zr825   2.447       .  S
O791        C801   1.295       .  A
O792       Zr824   2.449       .  S
O792        C800   1.295       .  A
O793       Zr795   2.368       .  S
O793        C799   1.276       .  A
O794       Zr795   2.376       .  S
O794        C798   1.277       .  A
Zr795      O1101   2.444       .  S
Zr795       O796   2.336       .  S
Zr795      O1109   2.314       .  S
Zr795       O805   2.340       .  S
Zr795      O1115   2.330       .  S
O796       Zr822   2.321       .  S
O796       Zr825   2.340       .  S
O797      Zr1107   2.339   1_554  S
O797      Zr1135   2.344   1_554  S
O797       Zr824   2.341       .  S
C798       C1213   1.481       .  S
C799       C1209   1.478       .  S
C800        C878   1.464       .  S
C801        C882   1.470       .  S
H802        O803   0.966       .  S
O803      Zr1107   2.331   1_554  S
O803      Zr1134   2.344       .  S
O803       Zr824   2.342       .  S
H804        O805   0.965       .  S
O805       Zr823   2.340       .  S
O805       Zr825   2.356       .  S
O806       Zr822   2.452       .  S
O806        C829   1.297       .  A
O807       Zr823   2.460       .  S
O807        C830   1.297       .  A
O808       Zr824   2.447       .  S
O808        C831   1.293       .  A
O809       Zr825   2.405       .  S
O809        C832   1.284       .  A
O810       Zr825   2.384       .  S
O810        C833   1.281       .  A
O811       Zr824   2.440       .  S
O811        C834   1.293       .  A
O812      Zr1138   2.451       .  S
O812        C835   1.294       .  A
O813       Zr826   2.376       .  S
O813        C836   1.278       .  A
O814       Zr824   2.435       .  S
O814        C835   1.291       .  A
O815       Zr825   2.493       .  S
O815        C836   1.301       .  A
O816      Zr1134   2.461       .  S
O816        C831   1.298       .  A
O817      Zr1135   2.491   1_554  S
O817        C834   1.303       .  A
O818       Zr823   2.521       .  S
O818        C833   1.309       .  A
O819       Zr822   2.475       .  S
O819        C832   1.302       .  A
O820       Zr826   2.413       .  S
O820        C829   1.286       .  A
O821       Zr826   2.423       .  S
O821        C830   1.287       .  A
Zr822      O1128   2.432       .  S
Zr822      O1115   2.352       .  S
Zr822      O1140   2.361       .  S
Zr822       O840   2.353       .  S
Zr823      O1129   2.489       .  S
Zr823      O1109   2.351       .  S
Zr823       O827   2.357       .  S
Zr823      O1150   2.374       .  S
Zr824       O828   2.344       .  S
Zr824       O838   2.342       .  S
Zr825       O827   2.334       .  S
Zr825       O840   2.323       .  S
Zr826      O1124   2.393       .  S
Zr826       O827   2.328       .  S
Zr826      O1140   2.328       .  S
Zr826       O840   2.337       .  S
Zr826      O1150   2.320       .  S
O828      Zr1134   2.336       .  S
O828      Zr1138   2.334       .  S
C829       C1201   1.467       .  S
C830       C1206   1.474       .  S
C831        C846   1.489       .  S
C832        C850   1.477       .  S
C833        C854   1.482       .  S
C834        C842   1.496       .  S
C835        C874   1.480       .  S
C836        C886   1.473       .  S
H837        O838   0.965       .  S
O838      Zr1135   2.349   1_554  S
O838      Zr1138   2.325       .  S
H839        O840   0.966       .  S
C841        C842   1.360       .  D
C841        H843   1.086       .  S
C842        H844   1.086       .  S
C845        C846   1.347       .  D
C845        H847   1.087       .  S
C846        H848   1.087       .  S
C849        C850   1.333       .  D
C849        H851   1.088       .  S
C850        H852   1.087       .  S
C853        C854   1.335       .  D
C853        H855   1.087       .  S
C854        H856   1.088       .  S
C857        C858   1.331       .  D
C857        H859   1.088       .  S
C858        H860   1.087       .  S
C861        C862   1.340       .  D
C861        H863   1.087       .  S
C862        H864   1.087       .  S
C865        C866   1.346       .  D
C865        H867   1.087       .  S
C866        H868   1.087       .  S
C869        C870   1.331       .  D
C869        H871   1.087       .  S
C870        H872   1.088       .  S
C873        C874   1.347       .  D
C873        H875   1.087       .  S
C874        H876   1.087       .  S
C877        C878   1.332       .  D
C877        H879   1.088       .  S
C878        H880   1.087       .  S
C881        C882   1.336       .  D
C881        H883   1.087       .  S
C882        H884   1.087       .  S
C885        C886   1.334       .  D
C885        H887   1.086       .  S
C886        H888   1.088       .  S
C889       C1141   1.474       .  S
C889        C890   1.338       .  D
C889       H1203   1.087       .  S
C890        H892   1.088   1_554  S
H891       C1201   1.087       .  S
C893        C894   1.350       .  D
C893       H1207   1.087       .  S
C894       C1142   1.473       .  S
C894        H896   1.087       .  S
H895       C1205   1.087       .  S
C897       C1111   1.463       .  S
C897        C898   1.345       .  D
C897        H899   1.087       .  S
C898       H1212   1.087       .  S
H900       C1210   1.088       .  S
C901       C1110   1.474       .  S
C901        C902   1.329       .  D
C901        H903   1.087       .  S
C902       H1216   1.088       .  S
H904       C1214   1.088       .  S
C905        C906   1.343       .  D
C905        H907   1.087       .  S
C909        C910   1.353       .  D
C910        H912   1.087       .  S
C913        C914   1.337       .  D
C914        H916   1.087       .  S
C917        C918   1.333       .  D
C918        H920   1.087       .  S
C921        C922   1.345   1_655  D
C921       H2171   1.086       .  S
C922       H2172   1.087       .  S
H923       C2169   1.086       .  S
H924       C2170   1.087       .  S
C925        C926   1.341   1_655  D
C925        H927   1.087       .  S
C926       H2176   1.087       .  S
H928       C2174   1.087       .  S
C929        C930   1.352   1_655  D
C929       H2179   1.087   1_655  S
C930        H932   1.086   1_455  S
H931       C2177   1.086       .  S
C933        C934   1.359       .  D
C933       H2183   1.086       .  S
C934        H936   1.086       .  S
H935       C2181   1.086       .  S
O937       Zr973   2.446       .  S
O937        C948   1.293       .  A
O938       Zr972   2.467   1_655  S
O938        C949   1.298       .  A
O939       Zr945   2.527   1_455  S
O939        C950   1.310       .  A
O940      Zr2193   2.466       .  S
O940        C951   1.299       .  A
O941       Zr975   2.416       .  S
O941        C951   1.286       .  A
O942       Zr974   2.359       .  S
O942        C950   1.276       .  A
O943        C949   1.304       .  A
O944       Zr945   2.512       .  S
O944        C948   1.307       .  A
Zr945      O2188   2.489       .  S
Zr945      O1882   2.373       .  S
Zr945       O947   2.342   1_655  S
Zr945      O2203   2.366       .  S
O946      Zr1881   2.353       .  S
O946      Zr2220   2.345       .  S
O947       Zr973   2.348   1_455  S
O947       Zr974   2.345       .  S
C948       C1245   1.511       .  S
C949       C1234   1.513       .  S
C950       C1214   1.479       .  S
C951       C1205   1.482       .  S
H952        O953   0.965       .  S
O953       Zr972   2.356       .  S
H954        O955   0.966       .  S
O955      Zr2193   2.350       .  S
O955      Zr2221   2.360       .  S
O955       Zr975   2.339       .  S
O956        C979   1.307       .  A
O957        C980   1.311       .  A
O958        C981   1.290       .  A
O959        C982   1.282       .  A
O960       Zr975   2.423       .  S
O960        C983   1.287       .  A
O961       Zr974   2.438       .  S
O961        C984   1.293       .  A
O962       Zr976   2.514       .  S
O962        C985   1.308       .  A
O963      Zr2224   2.443       .  S
O963        C986   1.293       .  A
O964        C985   1.278       .  A
O965        C986   1.282       .  A
O966       Zr972   2.499       .  S
O966        C981   1.304       .  A
O967       Zr973   2.436   1_455  S
O967        C984   1.291       .  A
O968      Zr2221   2.413       .  S
O968        C983   1.289       .  A
O969      Zr2220   2.459       .  S
O969        C982   1.298       .  A
O970        C979   1.288       .  A
O971       Zr976   2.378       .  S
O971        C980   1.280       .  A
Zr972      O2217   2.493   1_455  S
Zr972      O2194   2.356   1_455  S
Zr972      O1614   2.355   1_455  S
Zr973      O2216   2.448       .  S
Zr973      O2203   2.344       .  S
Zr973      O1601   2.337       .  S
Zr976      O2211   2.490   1_455  S
Zr976      O2225   2.354   1_455  S
Zr976      O1926   2.344   1_455  S
Zr976       O988   2.346       .  S
O977      Zr1597   2.353   1_565  S
O977      Zr2224   2.338       .  S
C979       C1237   1.496       .  S
C980       C1241   1.488       .  S
C981       C1221   1.494       .  S
C982       C1217   1.471       .  S
C983       C1229   1.461       .  S
C984       C1225   1.475       .  S
C985       C1210   1.478       .  S
C986       C1202   1.468       .  S
H987        O988   0.965       .  S
H989        O990   0.966       .  S
O990      Zr1596   2.330       .  S
O990      Zr1912   2.333   1_556  S
O991      Zr1027   2.442       .  S
O991       C1002   1.294       .  A
O992      Zr1026   2.445       .  S
O992       C1003   1.295   1_455  A
O993       Zr999   2.428   1_455  S
O993       C1004   1.289       .  A
O994      Zr2247   2.491       .  S
O994       C1005   1.303       .  A
O995      Zr1029   2.387       .  S
O995       C1005   1.280       .  A
O996      Zr1028   2.449       .  S
O996       C1004   1.294       .  A
O997       Zr999   2.530       .  S
O997       C1003   1.310       .  A
O998       Zr999   2.524       .  S
O998       C1002   1.310       .  A
Zr999      O2242   2.450       .  S
Zr999      O2248   2.355       .  S
Zr999      O1001   2.360   1_655  S
Zr999      O2257   2.357       .  S
Zr999      O1007   2.357   1_655  S
O1000     Zr2247   2.362       .  S
O1000     Zr2274   2.350       .  S
O1000     Zr1029   2.325       .  S
O1001     Zr1027   2.370   1_455  S
O1001     Zr1028   2.318       .  S
C1002      C1246   1.510       .  S
C1003      C1233   1.511   1_655  S
C1004      C1177   1.480       .  S
C1005      C1169   1.476       .  S
H1006      O1007   0.965       .  S
O1007     Zr1026   2.377       .  S
O1007     Zr1028   2.336       .  S
H1008      O1009   0.966       .  S
O1009     Zr2247   2.355       .  S
O1009     Zr2275   2.358       .  S
O1009     Zr1029   2.338       .  S
O1010     Zr1026   2.521       .  S
O1010      C1033   1.308       .  A
O1011     Zr1027   2.529       .  S
O1011      C1034   1.311   1_655  A
O1012     Zr1028   2.419       .  S
O1012      C1035   1.287       .  A
O1013     Zr1029   2.428       .  S
O1013      C1036   1.288       .  A
O1014     Zr1029   2.383       .  S
O1014      C1037   1.280       .  A
O1015     Zr1028   2.463       .  S
O1015      C1038   1.296       .  A
O1016     Zr1030   2.492       .  S
O1016      C1039   1.304       .  A
O1017     Zr2278   2.461       .  S
O1017      C1040   1.296       .  A
O1018     Zr1028   2.381       .  S
O1018      C1039   1.279       .  A
O1019     Zr1029   2.400       .  S
O1019      C1040   1.281       .  A
O1020     Zr1026   2.480       .  S
O1020      C1035   1.302       .  A
O1021     Zr1027   2.426   1_455  S
O1021      C1038   1.289       .  A
O1022     Zr2275   2.501       .  S
O1022      C1037   1.304       .  A
O1023     Zr2274   2.466       .  S
O1023      C1036   1.298       .  A
O1024     Zr1030   2.400       .  S
O1024      C1033   1.283       .  A
O1025     Zr1030   2.373       .  S
O1025      C1034   1.279       .  A
Zr1026     O2271   2.485   1_455  S
Zr1026     O2248   2.373   1_455  S
Zr1026     O1032   2.341       .  S
Zr1026     O2292   2.333   1_455  S
Zr1027     O2270   2.449       .  S
Zr1027     O2257   2.364       .  S
Zr1027     O2279   2.323       .  S
Zr1027     O1042   2.327   1_655  S
Zr1028     O1032   2.366       .  S
Zr1028     O1042   2.344       .  S
Zr1029     O1031   2.333       .  S
Zr1029     O1044   2.324       .  S
Zr1030     O2265   2.495   1_455  S
Zr1030     O2279   2.347   1_455  S
Zr1030     O1032   2.337       .  S
Zr1030     O2292   2.336   1_455  S
Zr1030     O1042   2.339       .  S
O1031     Zr2275   2.344       .  S
O1031     Zr2278   2.329       .  S
C1033      C1238   1.494       .  S
C1034      C1242   1.489       .  S
C1035      C1193   1.482       .  S
C1036      C1197   1.486       .  S
C1037      C1185   1.477       .  S
C1038      C1189   1.482       .  S
C1039      C1181   1.474       .  S
C1040      C1173   1.469       .  S
H1041      O1042   0.965       .  S
H1043      O1044   0.964       .  S
O1044     Zr2274   2.330       .  S
O1044     Zr2278   2.329       .  S
O1045     Zr1081   2.415       .  S
O1045      C1056   1.286       .  A
O1046     Zr1080   2.378       .  S
O1046      C1057   1.279       .  A
O1047     Zr1053   2.497   1_565  S
O1047      C1058   1.304       .  A
O1048      C1059   1.282       .  A
O1049     Zr1083   2.503       .  S
O1049      C1059   1.305       .  A
O1050     Zr1082   2.412       .  S
O1050      C1058   1.287       .  A
O1051     Zr1053   2.493   1_565  S
O1051      C1057   1.303       .  A
O1052     Zr1053   2.485       .  S
O1052      C1056   1.303       .  A
Zr1053     O1055   2.350   1_545  S
Zr1053     O1061   2.349   1_545  S
O1054     Zr1083   2.350       .  S
O1055     Zr1081   2.349   1_565  S
O1055     Zr1082   2.348       .  S
C1058      C1157   1.485       .  S
C1059      C1153   1.479       .  S
H1060      O1061   0.966       .  S
O1061     Zr1080   2.335       .  S
O1061     Zr1082   2.341       .  S
H1062      O1063   0.966       .  S
O1063     Zr1083   2.345       .  S
O1064     Zr1080   2.404       .  S
O1064      C1087   1.282       .  A
O1065     Zr1081   2.441       .  S
O1065      C1088   1.293       .  A
O1066     Zr1082   2.487       .  S
O1066      C1089   1.301       .  A
O1067     Zr1083   2.428       .  S
O1067      C1090   1.290       .  A
O1068     Zr1083   2.474       .  S
O1068      C1091   1.301       .  A
O1069     Zr1082   2.467       .  S
O1069      C1092   1.299       .  A
O1070     Zr1084   2.469       .  S
O1070      C1093   1.299       .  A
O1071      C1094   1.293       .  A
O1072     Zr1082   2.430       .  S
O1072      C1093   1.290       .  A
O1073     Zr1083   2.492       .  S
O1073      C1094   1.304       .  A
O1074     Zr1080   2.365       .  S
O1074      C1089   1.276       .  A
O1075     Zr1081   2.399   1_565  S
O1075      C1092   1.283       .  A
O1076      C1091   1.284       .  A
O1077      C1090   1.297       .  A
O1078     Zr1084   2.450       .  S
O1078      C1087   1.296       .  A
O1079     Zr1084   2.418       .  S
O1079      C1088   1.287   1_565  A
Zr1080     O1086   2.324       .  S
Zr1081     O1096   2.339   1_545  S
Zr1082     O1086   2.336       .  S
Zr1082     O1096   2.342       .  S
Zr1083     O1085   2.352       .  S
Zr1083     O1098   2.365       .  S
Zr1084     O1086   2.331       .  S
Zr1084     O1096   2.340       .  S
C1089      C1182   1.467       .  S
C1090      C1178   1.480       .  S
C1091      C1170   1.480       .  S
C1092      C1174   1.470       .  S
C1093      C1161   1.483       .  S
C1094      C1165   1.495       .  S
H1095      O1096   0.965       .  S
H1097      O1098   0.965       .  S
O1099     Zr1135   2.474       .  S
O1099      C1110   1.302       .  A
O1100     Zr1134   2.433       .  S
O1100      C1111   1.290       .  A
O1101      C1112   1.293       .  A
O1102     Zr1107   2.406       .  S
O1102      C1113   1.283       .  A
O1103     Zr1137   2.487       .  S
O1103      C1113   1.301       .  A
O1104     Zr1136   2.444       .  S
O1104      C1112   1.292       .  A
O1105     Zr1107   2.411   1_554  S
O1105      C1111   1.287       .  A
O1106     Zr1107   2.390       .  S
O1106      C1110   1.280       .  A
Zr1107     O1108   2.321       .  S
Zr1107     O1117   2.339       .  S
O1108     Zr1134   2.344   1_556  S
O1108     Zr1137   2.338       .  S
O1109     Zr1136   2.361       .  S
C1112      C1190   1.484       .  S
C1113      C1194   1.478       .  S
H1114      O1115   0.966       .  S
O1115     Zr1136   2.350       .  S
H1116      O1117   0.966       .  S
O1117     Zr1135   2.350       .  S
O1117     Zr1137   2.351       .  S
O1118     Zr1134   2.449       .  S
O1118      C1141   1.296       .  A
O1119     Zr1135   2.449       .  S
O1119      C1142   1.294       .  A
O1120     Zr1136   2.475       .  S
O1120      C1143   1.302       .  A
O1121     Zr1137   2.463       .  S
O1121      C1144   1.299       .  A
O1122     Zr1137   2.440       .  S
O1122      C1145   1.292       .  A
O1123     Zr1136   2.417       .  S
O1123      C1146   1.288       .  A
O1124      C1147   1.280       .  A
O1125     Zr1138   2.422   1_556  S
O1125      C1148   1.288       .  A
O1126     Zr1136   2.485       .  S
O1126      C1147   1.302       .  A
O1127     Zr1137   2.477       .  S
O1127      C1148   1.300       .  A
O1128      C1143   1.291       .  A
O1129      C1146   1.306       .  A
O1130     Zr1135   2.491       .  S
O1130      C1145   1.304       .  A
O1131     Zr1134   2.444   1_556  S
O1131      C1144   1.293       .  A
O1132     Zr1138   2.413       .  S
O1132      C1141   1.285       .  A
O1133     Zr1138   2.416       .  S
O1133      C1142   1.288   1_554  A
Zr1134     O1152   2.349   1_554  S
Zr1135     O1139   2.347       .  S
Zr1136     O1140   2.319       .  S
Zr1136     O1150   2.348       .  S
Zr1137     O1139   2.351       .  S
Zr1137     O1152   2.357       .  S
Zr1138     O1139   2.341   1_554  S
Zr1138     O1152   2.349   1_554  S
C1143      C1158   1.489       .  S
C1144      C1162   1.489       .  S
C1145      C1166   1.497       .  S
C1146      C1154   1.484       .  S
C1147      C1186   1.483       .  S
C1148      C1198   1.485       .  S
H1149      O1150   0.966       .  S
H1151      O1152   0.964       .  S
C1153      C1154   1.335       .  D
C1153      H1155   1.088       .  S
C1154      H1156   1.087       .  S
C1157      C1158   1.342       .  D
C1157      H1159   1.087       .  S
C1158      H1160   1.086       .  S
C1161      C1162   1.345       .  D
C1161      H1163   1.087       .  S
C1162      H1164   1.087       .  S
C1165      C1166   1.346       .  D
C1165      H1167   1.087       .  S
C1166      H1168   1.087       .  S
C1169      C1170   1.333       .  D
C1169      H1171   1.088       .  S
C1170      H1172   1.087       .  S
C1173      C1174   1.333       .  D
C1173      H1175   1.087       .  S
C1174      H1176   1.087       .  S
C1177      C1178   1.343       .  D
C1177      H1179   1.087       .  S
C1178      H1180   1.087       .  S
C1181      C1182   1.327       .  D
C1181      H1183   1.087       .  S
C1182      H1184   1.088       .  S
C1185      C1186   1.332       .  D
C1185      H1187   1.088       .  S
C1186      H1188   1.087       .  S
C1189      C1190   1.347       .  D
C1189      H1191   1.087       .  S
C1190      H1192   1.086       .  S
C1193      C1194   1.338       .  D
C1193      H1195   1.087       .  S
C1194      H1196   1.087       .  S
C1197      C1198   1.342       .  D
C1197      H1199   1.087       .  S
C1198      H1200   1.087       .  S
C1201      C1202   1.336       .  D
C1202      H1204   1.087       .  S
C1205      C1206   1.339       .  D
C1206      H1208   1.087       .  S
C1209      C1210   1.326       .  D
C1209      H1211   1.088       .  S
C1213      C1214   1.325       .  D
C1213      H1215   1.087       .  S
C1217      C1218   1.331       .  D
C1217      H1219   1.087       .  S
C1221      C1222   1.345       .  D
C1222      H1224   1.087       .  S
C1225      C1226   1.342       .  D
C1226      H1228   1.087       .  S
C1229      C1230   1.339       .  D
C1230      H1232   1.087       .  S
C1233      C1234   1.354   1_455  D
C1233      H2483   1.087       .  S
C1234      H2484   1.086       .  S
H1235      C2481   1.087       .  S
H1236      C2482   1.086       .  S
C1237      C1238   1.340   1_655  D
C1237      H1239   1.087       .  S
C1238      H2488   1.087       .  S
H1240      C2486   1.088       .  S
C1241      C1242   1.330       .  D
C1241      H2491   1.088   1_455  S
C1242      H1244   1.087       .  S
H1243      C2489   1.088       .  S
C1245      C1246   1.350       .  D
C1245      H2495   1.087       .  S
C1246      H1248   1.087       .  S
H1247      C2493   1.086       .  S
O1249     Zr1285   2.445       .  S
O1249      C1260   1.294       .  A
O1250     Zr1284   2.440   1_545  S
O1250      C1261   1.292       .  A
O1251     Zr1257   2.406       .  S
O1251      C1262   1.285       .  A
O1252      C1263   1.286       .  A
O1253     Zr1287   2.459       .  S
O1253      C1263   1.298       .  A
O1254     Zr1286   2.529   1_556  S
O1254      C1262   1.311       .  A
O1255     Zr1569   2.478       .  S
O1255      C1261   1.300       .  A
O1256     Zr1257   2.456   1_554  S
O1256      C1260   1.294       .  A
Zr1257     O1567   2.443       .  S
Zr1257     O1259   2.341   1_556  S
Zr1257     O1577   2.360       .  S
O1258     Zr1599   2.330       .  S
O1259     Zr1285   2.348       .  S
O1259     Zr1286   2.360       .  S
C1260      C1557   1.487       .  S
C1261      C1546   1.493       .  S
C1262      C1526   1.496       .  S
C1263      C1517   1.481       .  S
H1264      O1265   0.966       .  S
O1265     Zr1569   2.350       .  S
O1265     Zr1284   2.349   1_545  S
O1265     Zr1598   2.354   1_545  S
H1266      O1267   0.966       .  S
O1267     Zr1287   2.342       .  S
O1268     Zr1908   2.499       .  S
O1268      C1291   1.302       .  A
O1269     Zr1909   2.475       .  S
O1269      C1292   1.299       .  A
O1270     Zr1598   2.497       .  S
O1270      C1293   1.304       .  A
O1271     Zr1599   2.443       .  S
O1271      C1294   1.292       .  A
O1272     Zr1287   2.461       .  S
O1272      C1295   1.299       .  A
O1273     Zr1286   2.497       .  S
O1273      C1296   1.306       .  A
O1274     Zr1288   2.433       .  S
O1274      C1297   1.290       .  A
O1275      C1298   1.283       .  A
O1276     Zr1910   2.484       .  S
O1276      C1297   1.302   1_556  A
O1277     Zr1911   2.462       .  S
O1277      C1298   1.298       .  A
O1278     Zr1284   2.409       .  S
O1278      C1293   1.286       .  A
O1279     Zr1285   2.424       .  S
O1279      C1296   1.288       .  A
O1280      C1295   1.285       .  A
O1281      C1294   1.290       .  A
O1282     Zr1600   2.432       .  S
O1282      C1291   1.289       .  A
O1283     Zr1288   2.422       .  S
O1283      C1292   1.289       .  A
Zr1284     O1892   2.457       .  S
Zr1284     O1914   2.339       .  S
Zr1285     O1893   2.454   1_545  S
Zr1285     O1924   2.350   1_545  S
Zr1286     O1582   2.515   1_544  S
Zr1286     O1900   2.517   1_545  S
Zr1286     O1577   2.354   1_554  S
Zr1286     O2226   2.351   1_544  S
Zr1286     O1924   2.372   1_545  S
Zr1287     O1583   2.455   1_554  S
Zr1287     O1901   2.456   1_545  S
Zr1287     O1570   2.339   1_554  S
Zr1287     O1913   2.342   1_545  S
Zr1287     O2238   2.351   1_544  S
Zr1288     O1594   2.420   1_554  S
Zr1288     O1602   2.348   1_554  S
Zr1288     O1300   2.342       .  S
O1289     Zr1911   2.315       .  S
O1290     Zr1908   2.325       .  S
O1290     Zr2222   2.364       .  S
O1290     Zr1600   2.325       .  S
C1291      C1549   1.496       .  S
C1292      C1553   1.486       .  S
C1293      C1533   1.487       .  S
C1294      C1529   1.471       .  S
C1295      C1541   1.466       .  S
C1296      C1537   1.489       .  S
C1297      C1522   1.495       .  S
C1298      C1514   1.471       .  S
H1299      O1300   0.966       .  S
O1300     Zr1909   2.350       .  S
O1300     Zr1910   2.357   1_554  S
H1301      O1302   0.965       .  S
O1302     Zr2223   2.329       .  S
O1303     Zr1339   2.452       .  S
O1303      C1314   1.295       .  A
O1304     Zr1338   2.451       .  S
O1304      C1315   1.294       .  A
O1305     Zr1311   2.424       .  S
O1305      C1316   1.290       .  A
O1306      C1317   1.285       .  A
O1307     Zr1341   2.493       .  S
O1307      C1317   1.303       .  A
O1308     Zr1340   2.466       .  S
O1308      C1316   1.297       .  A
O1309     Zr1311   2.473       .  S
O1309      C1315   1.300       .  A
O1310     Zr1311   2.458       .  S
O1310      C1314   1.295       .  A
Zr1311     O1313   2.345       .  S
Zr1311     O1319   2.338       .  S
O1312     Zr1341   2.330       .  S
O1313     Zr1339   2.348       .  S
O1313     Zr1340   2.343       .  S
C1314      C1558   1.487       .  S
C1315      C1545   1.496       .  S
C1316      C1489   1.483       .  S
C1317      C1481   1.480       .  S
H1318      O1319   0.964       .  S
O1319     Zr1338   2.354       .  S
O1319     Zr1340   2.339       .  S
H1320      O1321   0.965       .  S
O1321     Zr1341   2.361       .  S
O1322     Zr1338   2.484       .  S
O1322      C1345   1.301       .  A
O1323     Zr1339   2.463       .  S
O1323      C1346   1.296       .  A
O1324     Zr1340   2.461       .  S
O1324      C1347   1.299       .  A
O1325     Zr1341   2.463       .  S
O1325      C1348   1.299       .  A
O1326     Zr1341   2.392       .  S
O1326      C1349   1.283       .  A
O1327     Zr1340   2.453       .  S
O1327      C1350   1.295       .  A
O1328     Zr1342   2.392       .  S
O1328      C1351   1.282       .  A
O1329      C1352   1.282       .  A
O1330     Zr1340   2.456       .  S
O1330      C1351   1.299       .  A
O1331     Zr1341   2.494       .  S
O1331      C1352   1.304       .  A
O1332     Zr1338   2.403       .  S
O1332      C1347   1.284       .  A
O1333     Zr1339   2.434       .  S
O1333      C1350   1.293       .  A
O1334      C1349   1.309       .  A
O1335      C1348   1.286       .  A
O1336     Zr1342   2.439       .  S
O1336      C1345   1.291       .  A
O1337     Zr1342   2.430       .  S
O1337      C1346   1.290       .  A
Zr1338     O1344   2.329       .  S
Zr1339     O1354   2.337       .  S
Zr1340     O1344   2.337       .  S
Zr1340     O1354   2.350       .  S
Zr1341     O1343   2.356       .  S
Zr1341     O1356   2.337       .  S
Zr1342     O1344   2.336       .  S
Zr1342     O1354   2.351       .  S
C1345      C1550   1.499       .  S
C1346      C1554   1.485       .  S
C1347      C1505   1.471       .  S
C1348      C1509   1.477       .  S
C1349      C1497   1.485       .  S
C1350      C1501   1.483       .  S
C1351      C1493   1.465       .  S
C1352      C1485   1.478       .  S
H1353      O1354   0.964       .  S
H1355      O1356   0.965       .  S
O1357     Zr1393   2.491       .  S
O1357      C1368   1.305       .  A
O1358     Zr1392   2.411       .  S
O1358      C1369   1.286       .  A
O1359     Zr1365   2.450       .  S
O1359      C1370   1.293       .  A
O1360     Zr1989   2.461       .  S
O1360      C1371   1.296       .  A
O1361     Zr1395   2.438       .  S
O1361      C1371   1.292       .  A
O1362     Zr1394   2.421       .  S
O1362      C1370   1.289       .  A
O1363     Zr1365   2.451       .  S
O1363      C1369   1.294       .  A
O1364     Zr1365   2.391       .  S
O1364      C1368   1.282       .  A
Zr1365     O1984   2.445       .  S
Zr1365     O1990   2.332       .  S
Zr1365     O1367   2.353       .  S
Zr1365     O1999   2.358       .  S
Zr1365     O1373   2.329       .  S
O1366     Zr1989   2.338       .  S
O1366     Zr2016   2.339   1_545  S
O1366     Zr1395   2.348       .  S
O1367     Zr1393   2.338       .  S
O1367     Zr1394   2.321       .  S
C1368      C2166   1.477       .  S
C1369      C2162   1.470       .  S
C1370      C1469   1.478       .  S
C1371      C1465   1.483       .  S
H1372      O1373   0.966       .  S
O1373     Zr1392   2.327       .  S
O1373     Zr1394   2.337       .  S
H1374      O1375   0.965       .  S
O1375     Zr1989   2.341       .  S
O1375     Zr2017   2.327       .  S
O1375     Zr1395   2.350       .  S
O1376     Zr1392   2.399       .  S
O1376      C1399   1.284       .  A
O1377     Zr1393   2.494       .  S
O1377      C1400   1.304       .  A
O1378     Zr1394   2.370       .  S
O1378      C1401   1.277       .  A
O1379     Zr1395   2.418       .  S
O1379      C1402   1.289       .  A
O1380     Zr1395   2.423       .  S
O1380      C1403   1.288       .  A
O1381     Zr1394   2.394       .  S
O1381      C1404   1.281       .  A
O1382     Zr1396   2.437       .  S
O1382      C1405   1.293       .  A
O1383     Zr2020   2.381   1_545  S
O1383      C1406   1.279       .  A
O1384     Zr1394   2.421       .  S
O1384      C1405   1.287       .  A
O1385     Zr1395   2.465       .  S
O1385      C1406   1.298       .  A
O1386     Zr1392   2.465       .  S
O1386      C1401   1.298       .  A
O1387     Zr1393   2.490       .  S
O1387      C1404   1.303       .  A
O1388     Zr2017   2.467       .  S
O1388      C1403   1.300       .  A
O1389     Zr2016   2.466   1_545  S
O1389      C1402   1.298       .  A
O1390     Zr1396   2.455       .  S
O1390      C1399   1.295       .  A
O1391     Zr1396   2.413       .  S
O1391      C1400   1.287       .  A
Zr1392     O2013   2.420       .  S
Zr1392     O1990   2.345       .  S
Zr1392     O1398   2.325       .  S
Zr1392     O2034   2.348       .  S
Zr1393     O2012   2.434       .  S
Zr1393     O1999   2.368       .  S
Zr1393     O2021   2.359       .  S
Zr1393     O1408   2.337       .  S
Zr1394     O1398   2.333       .  S
Zr1394     O1408   2.326       .  S
Zr1395     O1397   2.328       .  S
Zr1395     O1410   2.332       .  S
Zr1396     O2007   2.419       .  S
Zr1396     O2021   2.345       .  S
Zr1396     O1398   2.321       .  S
Zr1396     O2034   2.332       .  S
Zr1396     O1408   2.342       .  S
O1397     Zr2017   2.340       .  S
O1397     Zr2020   2.329   1_545  S
C1399      C2158   1.465       .  S
C1400      C2154   1.487       .  S
C1401      C1494   1.458       .  S
C1402      C1490   1.481       .  S
C1403      C1482   1.485       .  S
C1404      C1486   1.480       .  S
C1405      C1473   1.472       .  S
C1406      C1477   1.466       .  S
H1407      O1408   0.965       .  S
H1409      O1410   0.965       .  S
O1410     Zr2016   2.351   1_545  S
O1410     Zr2020   2.340   1_545  S
O1411     Zr1447   2.445       .  S
O1411      C1422   1.293       .  A
O1412     Zr1446   2.441       .  S
O1412      C1423   1.292       .  A
O1413     Zr1731   2.441   1_554  S
O1413      C1424   1.294       .  A
O1414     Zr1419   2.469       .  S
O1414      C1425   1.298       .  A
O1415     Zr1449   2.391       .  S
O1415      C1425   1.282       .  A
O1416     Zr1448   2.463       .  S
O1416      C1424   1.299       .  A
O1417     Zr1419   2.388       .  S
O1417      C1423   1.282       .  A
O1418     Zr1419   2.400       .  S
O1418      C1422   1.283       .  A
Zr1419     O1725   2.428       .  S
Zr1419     O1420   2.330       .  S
Zr1419     O1733   2.339       .  S
Zr1419     O1429   2.323       .  S
Zr1419     O1739   2.351       .  S
O1420     Zr1446   2.314       .  S
O1420     Zr1449   2.325       .  S
O1421     Zr1731   2.351   1_554  S
O1421     Zr1759   2.331   1_554  S
O1421     Zr1448   2.360       .  S
C1422      C1837   1.464       .  S
C1423      C1833   1.457       .  S
C1424      C1502   1.480       .  S
C1425      C1506   1.466       .  S
H1426      O1427   0.963       .  S
O1427     Zr1731   2.364   1_554  S
O1427     Zr1758   2.320       .  S
O1427     Zr1448   2.363       .  S
H1428      O1429   0.966       .  S
O1429     Zr1447   2.324       .  S
O1429     Zr1449   2.344       .  S
O1430     Zr1446   2.401       .  S
O1430      C1453   1.284       .  A
O1431     Zr1447   2.391       .  S
O1431      C1454   1.282       .  A
O1432     Zr1448   2.454       .  S
O1432      C1455   1.294       .  A
O1433     Zr1449   2.441       .  S
O1433      C1456   1.292       .  A
O1434     Zr1449   2.389       .  S
O1434      C1457   1.281       .  A
O1435     Zr1448   2.444       .  S
O1435      C1458   1.295       .  A
O1436     Zr1762   2.360       .  S
O1436      C1459   1.276       .  A
O1437     Zr1450   2.462       .  S
O1437      C1460   1.297       .  A
O1438     Zr1448   2.529       .  S
O1438      C1459   1.310       .  A
O1439     Zr1449   2.409       .  S
O1439      C1460   1.285       .  A
O1440     Zr1758   2.428       .  S
O1440      C1455   1.289       .  A
O1441     Zr1759   2.452   1_554  S
O1441      C1458   1.294       .  A
O1442     Zr1447   2.466       .  S
O1442      C1457   1.298       .  A
O1443     Zr1446   2.411       .  S
O1443      C1456   1.285       .  A
O1444     Zr1450   2.497       .  S
O1444      C1453   1.304       .  A
O1445     Zr1450   2.496       .  S
O1445      C1454   1.304       .  A
Zr1446     O1752   2.372       .  S
Zr1446     O1739   2.331       .  S
Zr1446     O1764   2.343       .  S
Zr1446     O1464   2.337       .  S
Zr1447     O1753   2.445       .  S
Zr1447     O1733   2.330       .  S
Zr1447     O1451   2.344       .  S
Zr1447     O1774   2.357       .  S
Zr1448     O1452   2.332       .  S
Zr1448     O1462   2.342       .  S
Zr1449     O1451   2.337       .  S
Zr1449     O1464   2.317       .  S
Zr1450     O1748   2.399       .  S
Zr1450     O1451   2.334       .  S
Zr1450     O1764   2.355       .  S
Zr1450     O1464   2.344       .  S
Zr1450     O1774   2.358       .  S
O1452     Zr1758   2.337       .  S
O1452     Zr1762   2.346       .  S
C1453      C1825   1.481       .  S
C1454      C1830   1.477       .  S
C1455      C1470   1.479       .  S
C1456      C1474   1.468       .  S
C1457      C1478   1.465       .  S
C1458      C1466   1.486       .  S
C1459      C1498   1.480       .  S
C1460      C1510   1.472       .  S
H1461      O1462   0.964       .  S
O1462     Zr1759   2.341   1_554  S
O1462     Zr1762   2.339       .  S
H1463      O1464   0.967       .  S
C1465      C1466   1.348       .  D
C1465      H1467   1.087       .  S
C1466      H1468   1.087       .  S
C1469      C1470   1.351       .  D
C1469      H1471   1.087       .  S
C1470      H1472   1.087       .  S
C1473      C1474   1.340       .  D
C1473      H1475   1.087       .  S
C1474      H1476   1.087       .  S
C1477      C1478   1.331       .  D
C1477      H1479   1.087       .  S
C1478      H1480   1.087       .  S
C1481      C1482   1.339       .  D
C1481      H1483   1.088       .  S
C1482      H1484   1.087       .  S
C1485      C1486   1.332       .  D
C1485      H1487   1.087       .  S
C1486      H1488   1.087       .  S
C1489      C1490   1.354       .  D
C1489      H1491   1.087       .  S
C1490      H1492   1.086       .  S
C1493      C1494   1.328       .  D
C1493      H1495   1.087       .  S
C1494      H1496   1.088       .  S
C1497      C1498   1.329       .  D
C1497      H1499   1.087       .  S
C1498      H1500   1.088       .  S
C1501      C1502   1.347       .  D
C1501      H1503   1.086       .  S
C1502      H1504   1.087       .  S
C1505      C1506   1.334       .  D
C1505      H1507   1.087       .  S
C1506      H1508   1.088       .  S
C1509      C1510   1.337       .  D
C1509      H1511   1.087       .  S
C1510      H1512   1.087       .  S
C1513      C1765   1.468       .  S
C1513      C1514   1.333       .  D
C1513      H1827   1.088       .  S
C1514      H1516   1.087       .  S
H1515      C1825   1.088       .  S
C1517      C1518   1.337       .  D
C1517      H1831   1.087       .  S
C1518      C1766   1.474       .  S
C1518      H1520   1.088       .  S
H1519      C1829   1.087       .  S
C1521      C1735   1.490       .  S
C1521      C1522   1.342       .  D
C1521      H1523   1.087   1_554  S
C1522      H1836   1.087       .  S
H1524      C1834   1.087       .  S
C1525      C1734   1.495       .  S
C1525      C1526   1.337       .  D
C1525      H1527   1.087       .  S
C1526      H1840   1.087       .  S
H1528      C1838   1.087       .  S
C1529      C1530   1.345       .  D
C1529      H1531   1.087       .  S
C1530      C2024   1.467       .  S
C1530      H2156   1.087       .  S
H1532      C2154   1.087       .  S
C1533      C1534   1.340       .  D
C1533      H2159   1.087       .  S
C1534      C2023   1.488       .  S
C1534      H1536   1.087       .  S
H1535      C2157   1.087       .  S
C1537      C1538   1.337   1_545  D
C1537      H2163   1.087       .  S
C1538      C1993   1.484       .  S
C1538      H1540   1.087       .  S
H1539      C2161   1.087       .  S
C1541      C1542   1.333       .  D
C1541      H2167   1.087       .  S
C1542      C1992   1.467       .  S
C1542      H1544   1.087       .  S
H1543      C2165   1.087       .  S
C1545      C1546   1.347       .  D
C1549      C1550   1.348       .  D
C1549      H1551   1.087       .  S
C1553      C1554   1.355       .  D
C1554      H1556   1.087       .  S
C1557      C1558   1.351       .  D
C1558      H1560   1.087       .  S
O1561     Zr1597   2.509       .  S
O1561      C1572   1.307       .  A
O1562     Zr1596   2.443   1_545  S
O1562      C1573   1.292       .  A
O1563     Zr1569   2.444       .  S
O1563      C1574   1.295       .  A
O1564      C1575   1.280       .  A
O1565     Zr1599   2.482       .  S
O1565      C1575   1.301       .  A
O1566     Zr1598   2.416   1_545  S
O1566      C1574   1.287       .  A
O1567      C1573   1.294       .  A
O1568     Zr1569   2.445       .  S
O1568      C1572   1.293       .  A
Zr1569     O1571   2.356       .  S
O1571     Zr1597   2.360       .  S
O1571     Zr1598   2.358   1_545  S
C1572      C1869   1.504       .  S
C1573      C1858   1.482       .  S
C1574      C1838   1.469       .  S
C1575      C1829   1.475       .  S
H1576      O1577   0.966       .  S
O1577     Zr1596   2.346   1_545  S
H1578      O1579   0.965       .  S
O1579     Zr1599   2.323       .  S
O1580     Zr2220   2.472       .  S
O1580      C1603   1.300       .  A
O1581     Zr2221   2.519       .  S
O1581      C1604   1.308       .  A
O1582      C1605   1.307       .  A
O1583      C1606   1.296       .  A
O1584     Zr1599   2.451       .  S
O1584      C1607   1.295       .  A
O1585     Zr1598   2.476       .  S
O1585      C1608   1.300       .  A
O1586     Zr1600   2.430       .  S
O1586      C1609   1.293       .  A
O1587      C1610   1.285       .  A
O1588     Zr2222   2.425       .  S
O1588      C1609   1.288       .  A
O1589     Zr2223   2.486       .  S
O1589      C1610   1.302       .  A
O1590     Zr1596   2.382       .  S
O1590      C1605   1.280       .  A
O1591     Zr1597   2.453   1_565  S
O1591      C1608   1.296       .  A
O1592      C1607   1.295       .  A
O1593      C1606   1.295       .  A
O1594      C1603   1.287       .  A
O1595     Zr1600   2.388       .  S
O1595      C1604   1.281       .  A
Zr1596     O2204   2.457       .  S
Zr1596     O2226   2.328       .  S
Zr1597     O2205   2.498   1_545  S
Zr1597     O2236   2.370   1_545  S
Zr1598     O2212   2.460       .  S
Zr1598     O1914   2.332       .  S
Zr1598     O2236   2.341       .  S
Zr1599     O2213   2.409   1_545  S
Zr1599     O2225   2.357   1_545  S
Zr1599     O1926   2.366   1_545  S
Zr1600     O1612   2.346       .  S
O1601     Zr2223   2.341       .  S
O1602     Zr2220   2.346       .  S
O1602     Zr1910   2.341       .  S
C1603      C1861   1.484       .  S
C1604      C1865   1.490       .  S
C1605      C1845   1.484       .  S
C1606      C1841   1.482       .  S
C1607      C1853   1.487       .  S
C1608      C1849   1.494       .  S
C1609      C1834   1.468       .  S
C1610      C1826   1.484       .  S
H1611      O1612   0.966       .  S
O1612     Zr2221   2.332       .  S
O1612     Zr2222   2.351       .  S
H1613      O1614   0.966       .  S
O1614     Zr1911   2.357   1_556  S
O1615     Zr1651   2.505       .  S
O1615      C1626   1.306       .  A
O1616     Zr1650   2.426       .  S
O1616      C1627   1.290       .  A
O1617     Zr1623   2.410       .  S
O1617      C1628   1.287       .  A
O1618      C1629   1.285       .  A
O1619     Zr1653   2.463       .  S
O1619      C1629   1.296       .  A
O1620     Zr1652   2.468       .  S
O1620      C1628   1.297       .  A
O1621     Zr1623   2.460       .  S
O1621      C1627   1.296       .  A
O1622     Zr1623   2.441       .  S
O1622      C1626   1.292       .  A
Zr1623     O1625   2.347       .  S
Zr1623     O1631   2.345       .  S
O1624     Zr1653   2.353       .  S
O1625     Zr1651   2.360       .  S
O1625     Zr1652   2.343       .  S
C1626      C1870   1.503       .  S
C1627      C1857   1.478       .  S
C1628      C1801   1.480       .  S
C1629      C1793   1.469       .  S
H1630      O1631   0.965       .  S
O1631     Zr1650   2.354       .  S
O1631     Zr1652   2.343       .  S
H1632      O1633   0.966       .  S
O1633     Zr1653   2.331       .  S
O1634     Zr1650   2.460       .  S
O1634      C1657   1.297       .  A
O1635     Zr1651   2.527       .  S
O1635      C1658   1.311       .  A
O1636     Zr1652   2.460       .  S
O1636      C1659   1.297       .  A
O1637     Zr1653   2.367       .  S
O1637      C1660   1.278       .  A
O1638     Zr1653   2.406       .  S
O1638      C1661   1.284       .  A
O1639     Zr1652   2.439       .  S
O1639      C1662   1.292       .  A
O1640     Zr1654   2.424       .  S
O1640      C1663   1.288       .  A
O1641      C1664   1.277       .  A
O1642     Zr1652   2.455       .  S
O1642      C1663   1.297       .  A
O1643     Zr1653   2.486       .  S
O1643      C1664   1.302       .  A
O1644     Zr1650   2.438       .  S
O1644      C1659   1.292       .  A
O1645     Zr1651   2.479       .  S
O1645      C1662   1.302       .  A
O1646      C1661   1.303       .  A
O1647      C1660   1.307       .  A
O1648     Zr1654   2.426       .  S
O1648      C1657   1.288       .  A
O1649     Zr1654   2.383       .  S
O1649      C1658   1.281       .  A
Zr1650     O1656   2.332       .  S
Zr1651     O1666   2.352       .  S
Zr1652     O1656   2.345       .  S
Zr1652     O1666   2.351       .  S
Zr1653     O1655   2.319       .  S
Zr1653     O1668   2.347       .  S
Zr1654     O1656   2.332       .  S
Zr1654     O1666   2.353       .  S
C1657      C1862   1.481       .  S
C1658      C1866   1.488       .  S
C1659      C1817   1.484       .  S
C1660      C1821   1.471       .  S
C1661      C1809   1.485       .  S
C1662      C1813   1.491       .  S
C1663      C1805   1.478       .  S
C1664      C1797   1.470       .  S
H1665      O1666   0.966       .  S
H1667      O1668   0.967       .  S
O1669     Zr1705   2.411       .  S
O1669      C1680   1.286       .  A
O1670     Zr1704   2.495       .  S
O1670      C1681   1.304       .  A
O1671     Zr1677   2.518       .  S
O1671      C1682   1.308       .  A
O1672     Zr2301   2.498       .  S
O1672      C1683   1.304       .  A
O1673     Zr1707   2.449       .  S
O1673      C1683   1.293       .  A
O1674     Zr1706   2.380       .  S
O1674      C1682   1.278       .  A
O1675     Zr1677   2.387       .  S
O1675      C1681   1.283       .  A
O1676     Zr1677   2.457       .  S
O1676      C1680   1.295       .  A
Zr1677     O2296   2.473       .  S
Zr1677     O2302   2.368       .  S
Zr1677     O1679   2.324       .  S
Zr1677     O2311   2.343       .  S
Zr1677     O1685   2.352       .  S
O1678     Zr2301   2.367       .  S
O1678     Zr2328   2.347   1_545  S
O1678     Zr1707   2.344       .  S
O1679     Zr1705   2.324       .  S
O1679     Zr1706   2.339       .  S
C1680      C2478   1.473       .  S
C1681      C2474   1.474       .  S
C1682      C1781   1.487       .  S
C1683      C1777   1.502       .  S
H1684      O1685   0.966       .  S
O1685     Zr1704   2.340       .  S
O1685     Zr1706   2.325       .  S
H1686      O1687   0.964       .  S
O1687     Zr2301   2.357       .  S
O1687     Zr2329   2.333       .  S
O1687     Zr1707   2.351       .  S
O1688     Zr1704   2.482       .  S
O1688      C1711   1.302       .  A
O1689     Zr1705   2.403       .  S
O1689      C1712   1.284       .  A
O1690     Zr1706   2.396       .  S
O1690      C1713   1.282       .  A
O1691     Zr1707   2.419       .  S
O1691      C1714   1.288       .  A
O1692     Zr1707   2.406       .  S
O1692      C1715   1.284       .  A
O1693     Zr1706   2.366       .  S
O1693      C1716   1.276       .  A
O1694     Zr1708   2.457       .  S
O1694      C1717   1.295       .  A
O1695     Zr2332   2.424   1_545  S
O1695      C1718   1.289       .  A
O1696     Zr1706   2.404       .  S
O1696      C1717   1.283       .  A
O1697     Zr1707   2.474       .  S
O1697      C1718   1.299       .  A
O1698     Zr1704   2.472       .  S
O1698      C1713   1.298       .  A
O1699     Zr1705   2.501       .  S
O1699      C1716   1.305       .  A
O1700     Zr2329   2.453       .  S
O1700      C1715   1.297       .  A
O1701     Zr2328   2.466   1_545  S
O1701      C1714   1.297       .  A
O1702     Zr1708   2.429       .  S
O1702      C1711   1.290       .  A
O1703     Zr1708   2.497       .  S
O1703      C1712   1.303       .  A
Zr1704     O2325   2.420       .  S
Zr1704     O2302   2.353       .  S
Zr1704     O1710   2.344       .  S
Zr1704     O2346   2.370       .  S
Zr1705     O2324   2.440       .  S
Zr1705     O2311   2.352       .  S
Zr1705     O2333   2.350       .  S
Zr1705     O1720   2.333       .  S
Zr1706     O1710   2.311       .  S
Zr1706     O1720   2.333       .  S
Zr1707     O1709   2.340       .  S
Zr1707     O1722   2.340       .  S
Zr1708     O2319   2.426       .  S
Zr1708     O2333   2.334       .  S
Zr1708     O1710   2.352       .  S
Zr1708     O2346   2.373       .  S
Zr1708     O1720   2.325       .  S
O1709     Zr2329   2.333       .  S
O1709     Zr2332   2.346   1_545  S
C1711      C2470   1.485       .  S
C1712      C2466   1.484       .  S
C1713      C1806   1.473       .  S
C1714      C1802   1.482       .  S
C1715      C1794   1.475       .  S
C1716      C1798   1.471       .  S
C1717      C1785   1.469       .  S
C1718      C1789   1.483       .  S
H1719      O1720   0.966       .  S
H1721      O1722   0.966       .  S
O1722     Zr2328   2.341   1_545  S
O1722     Zr2332   2.363   1_545  S
O1723     Zr1759   2.397       .  S
O1723      C1734   1.282       .  A
O1724     Zr1758   2.411       .  S
O1724      C1735   1.285       .  A
O1725      C1736   1.290       .  A
O1726     Zr1731   2.476       .  S
O1726      C1737   1.301       .  A
O1727     Zr1761   2.435       .  S
O1727      C1737   1.292       .  A
O1728     Zr1760   2.489       .  S
O1728      C1736   1.304       .  A
O1729     Zr1731   2.498       .  S
O1729      C1735   1.303   1_556  A
O1730     Zr1731   2.514       .  S
O1730      C1734   1.308       .  A
Zr1731     O1732   2.346       .  S
Zr1731     O1741   2.347       .  S
O1732     Zr1758   2.330   1_556  S
O1732     Zr1761   2.349       .  S
O1733     Zr1760   2.367       .  S
C1736      C1814   1.489       .  S
C1737      C1818   1.487       .  S
H1738      O1739   0.963       .  S
O1739     Zr1760   2.356       .  S
H1740      O1741   0.964       .  S
O1741     Zr1759   2.339       .  S
O1741     Zr1761   2.363       .  S
O1742     Zr1758   2.386       .  S
O1742      C1765   1.281       .  A
O1743     Zr1759   2.398       .  S
O1743      C1766   1.283   1_556  A
O1744     Zr1760   2.524       .  S
O1744      C1767   1.310       .  A
O1745     Zr1761   2.457       .  S
O1745      C1768   1.297       .  A
O1746     Zr1761   2.435       .  S
O1746      C1769   1.291       .  A
O1747     Zr1760   2.502       .  S
O1747      C1770   1.305       .  A
O1748      C1771   1.285       .  A
O1749     Zr1762   2.388   1_556  S
O1749      C1772   1.280       .  A
O1750     Zr1760   2.504       .  S
O1750      C1771   1.306       .  A
O1751     Zr1761   2.484       .  S
O1751      C1772   1.303       .  A
O1752      C1767   1.277       .  A
O1753      C1770   1.293       .  A
O1754     Zr1759   2.462       .  S
O1754      C1769   1.297       .  A
O1755     Zr1758   2.414   1_556  S
O1755      C1768   1.285       .  A
O1756     Zr1762   2.473       .  S
O1756      C1765   1.299       .  A
O1757     Zr1762   2.485       .  S
O1757      C1766   1.300       .  A
Zr1758     O1776   2.348   1_554  S
Zr1759     O1763   2.339       .  S
Zr1760     O1764   2.349       .  S
Zr1760     O1774   2.358       .  S
Zr1761     O1763   2.341       .  S
Zr1761     O1776   2.331       .  S
Zr1762     O1763   2.333   1_554  S
Zr1762     O1776   2.338   1_554  S
C1767      C1782   1.486       .  S
C1768      C1786   1.475       .  S
C1769      C1790   1.485       .  S
C1770      C1778   1.503       .  S
C1771      C1810   1.482       .  S
C1772      C1822   1.476       .  S
H1773      O1774   0.966       .  S
H1775      O1776   0.965       .  S
C1777      C1778   1.348       .  D
C1777      H1779   1.087       .  S
C1778      H1780   1.087       .  S
C1781      C1782   1.329       .  D
C1781      H1783   1.087       .  S
C1782      H1784   1.088       .  S
C1785      C1786   1.336       .  D
C1785      H1787   1.088       .  S
C1786      H1788   1.087       .  S
C1789      C1790   1.344       .  D
C1789      H1791   1.087       .  S
C1790      H1792   1.087       .  S
C1793      C1794   1.337       .  D
C1793      H1795   1.087       .  S
C1794      H1796   1.087       .  S
C1797      C1798   1.325       .  D
C1797      H1799   1.087       .  S
C1798      H1800   1.088       .  S
C1801      C1802   1.355       .  D
C1801      H1803   1.086       .  S
C1802      H1804   1.087       .  S
C1805      C1806   1.337       .  D
C1805      H1807   1.087       .  S
C1806      H1808   1.088       .  S
C1809      C1810   1.335       .  D
C1809      H1811   1.087       .  S
C1810      H1812   1.087       .  S
C1813      C1814   1.343       .  D
C1813      H1815   1.087       .  S
C1814      H1816   1.087       .  S
C1817      C1818   1.344       .  D
C1817      H1819   1.087       .  S
C1818      H1820   1.087       .  S
C1821      C1822   1.328       .  D
C1821      H1823   1.088       .  S
C1822      H1824   1.087       .  S
C1825      C1826   1.337       .  D
C1826      H1828   1.087       .  S
C1829      C1830   1.331       .  D
C1830      H1832   1.088       .  S
C1833      C1834   1.338       .  D
C1833      H1835   1.087       .  S
C1837      C1838   1.338       .  D
C1837      H1839   1.087       .  S
C1841      C1842   1.349       .  D
C1841      H1843   1.087       .  S
C1842      C2336   1.484       .  S
C1842      H2468   1.086       .  S
H1844      C2466   1.087       .  S
C1845      C1846   1.333       .  D
C1845      H2471   1.088       .  S
C1846      C2335   1.490       .  S
C1846      H1848   1.087       .  S
H1847      C2469   1.087       .  S
C1849      C1850   1.356       .  D
C1849      H2475   1.086       .  S
C1850      C2305   1.496       .  S
C1850      H1852   1.086       .  S
H1851      C2473   1.087       .  S
C1853      C1854   1.350       .  D
C1853      H2479   1.087       .  S
C1854      C2304   1.487       .  S
C1854      H1856   1.087       .  S
H1855      C2477   1.087       .  S
C1857      C1858   1.344       .  D
C1861      C1862   1.341       .  D
C1861      H1863   1.087       .  S
C1865      C1866   1.332       .  D
C1866      H1868   1.088       .  S
C1869      C1870   1.348       .  D
C1870      H1872   1.087       .  S
O1873     Zr1909   2.452       .  S
O1873      C1884   1.295       .  A
O1874     Zr1908   2.427       .  S
O1874      C1885   1.290       .  A
O1875     Zr1881   2.457       .  S
O1875      C1886   1.297       .  A
O1876      C1887   1.301       .  A
O1877     Zr1911   2.435       .  S
O1877      C1887   1.291   1_554  A
O1878     Zr1910   2.462       .  S
O1878      C1886   1.296       .  A
O1879     Zr2193   2.518       .  S
O1879      C1885   1.308       .  A
O1880     Zr1881   2.487   1_554  S
O1880      C1884   1.302       .  A
Zr1881     O2191   2.485       .  S
Zr1881     O1883   2.346   1_556  S
Zr1881     O2201   2.348       .  S
O1882     Zr2223   2.349       .  S
O1883     Zr1909   2.354       .  S
O1883     Zr1910   2.354   1_554  S
C1884      C2181   1.499       .  S
C1885      C2170   1.501       .  S
C1886      C2150   1.496       .  S
C1887      C2141   1.490       .  S
H1888      O1889   0.965       .  S
O1889     Zr2193   2.363       .  S
O1889     Zr1908   2.368       .  S
O1889     Zr2222   2.351       .  S
H1890      O1891   0.966       .  S
O1891     Zr1911   2.340       .  S
O1892      C1915   1.296       .  A
O1893      C1916   1.294       .  A
O1894     Zr2222   2.428       .  S
O1894      C1917   1.289       .  A
O1895     Zr2223   2.472       .  S
O1895      C1918   1.300       .  A
O1896     Zr1911   2.484       .  S
O1896      C1919   1.301       .  A
O1897     Zr1910   2.432   1_554  S
O1897      C1920   1.290       .  A
O1898     Zr1912   2.386       .  S
O1898      C1921   1.281       .  A
O1899      C1922   1.291       .  A
O1900      C1921   1.309       .  A
O1901      C1922   1.294       .  A
O1902     Zr1908   2.443       .  S
O1902      C1917   1.295       .  A
O1903     Zr1909   2.443       .  S
O1903      C1920   1.295       .  A
O1904      C1919   1.280       .  A
O1905      C1918   1.288       .  A
O1906     Zr2224   2.414       .  S
O1906      C1915   1.286       .  A
O1907     Zr1912   2.418       .  S
O1907      C1916   1.288       .  A
Zr1910     O2206   2.475       .  S
Zr1910     O2201   2.341       .  S
Zr1911     O2207   2.411   1_554  S
Zr1911     O2194   2.362   1_554  S
Zr1912     O2218   2.407   1_554  S
Zr1912     O2226   2.349   1_554  S
Zr1912     O1924   2.348       .  S
O1914     Zr2224   2.328       .  S
C1915      C2173   1.475       .  S
C1916      C2177   1.477       .  S
C1917      C2157   1.475       .  S
C1918      C2153   1.491       .  S
C1919      C2165   1.477       .  S
C1920      C2161   1.475       .  S
C1921      C2146   1.486       .  S
C1922      C2138   1.485       .  S
H1923      O1924   0.965       .  S
H1925      O1926   0.966       .  S
O1927     Zr1963   2.450       .  S
O1927      C1938   1.294       .  A
O1928     Zr1962   2.450       .  S
O1928      C1939   1.293       .  A
O1929     Zr1935   2.477       .  S
O1929      C1940   1.301       .  A
O1930      C1941   1.301       .  A
O1931     Zr1965   2.426       .  S
O1931      C1941   1.289       .  A
O1932     Zr1964   2.425       .  S
O1932      C1940   1.289       .  A
O1933     Zr1935   2.490       .  S
O1933      C1939   1.304       .  A
O1934     Zr1935   2.482       .  S
O1934      C1938   1.302       .  A
Zr1935     O1937   2.352       .  S
Zr1935     O1943   2.347       .  S
O1936     Zr1965   2.335       .  S
O1937     Zr1963   2.354       .  S
O1937     Zr1964   2.349       .  S
C1938      C2182   1.498       .  S
C1939      C2169   1.505       .  S
C1940      C2113   1.487       .  S
C1941      C2105   1.490       .  S
H1942      O1943   0.965       .  S
O1943     Zr1962   2.351       .  S
O1943     Zr1964   2.353       .  S
H1944      O1945   0.965       .  S
O1945     Zr1965   2.340       .  S
O1946     Zr1962   2.456       .  S
O1946      C1969   1.297       .  A
O1947     Zr1963   2.461       .  S
O1947      C1970   1.296       .  A
O1948     Zr1964   2.468       .  S
O1948      C1971   1.300       .  A
O1949     Zr1965   2.483       .  S
O1949      C1972   1.302       .  A
O1950     Zr1965   2.488       .  S
O1950      C1973   1.302       .  A
O1951     Zr1964   2.478       .  S
O1951      C1974   1.299       .  A
O1952     Zr1966   2.448       .  S
O1952      C1975   1.293       .  A
O1953      C1976   1.303       .  A
O1954     Zr1964   2.454       .  S
O1954      C1975   1.295       .  A
O1955     Zr1965   2.409       .  S
O1955      C1976   1.286       .  A
O1956     Zr1962   2.421       .  S
O1956      C1971   1.287       .  A
O1957     Zr1963   2.395       .  S
O1957      C1974   1.285       .  A
O1958      C1973   1.281       .  A
O1959      C1972   1.278       .  A
O1960     Zr1966   2.424       .  S
O1960      C1969   1.288       .  A
O1961     Zr1966   2.416       .  S
O1961      C1970   1.289       .  A
Zr1962     O1968   2.350       .  S
Zr1963     O1978   2.352       .  S
Zr1964     O1968   2.340       .  S
Zr1964     O1978   2.344       .  S
Zr1965     O1967   2.346       .  S
Zr1965     O1980   2.343       .  S
Zr1966     O1968   2.337       .  S
Zr1966     O1978   2.344       .  S
C1969      C2174   1.478       .  S
C1970      C2178   1.477       .  S
C1971      C2129   1.481       .  S
C1972      C2133   1.462       .  S
C1973      C2121   1.469       .  S
C1974      C2125   1.476       .  S
C1975      C2117   1.484       .  S
C1976      C2109   1.485       .  S
H1977      O1978   0.966       .  S
H1979      O1980   0.965       .  S
O1981     Zr2017   2.459       .  S
O1981      C1992   1.297       .  A
O1982     Zr2016   2.513       .  S
O1982      C1993   1.306       .  A
O1983     Zr1989   2.460   1_565  S
O1983      C1994   1.295       .  A
O1984      C1995   1.294       .  A
O1985     Zr2019   2.473       .  S
O1985      C1995   1.299       .  A
O1986     Zr2018   2.457       .  S
O1986      C1994   1.296       .  A
O1987     Zr1989   2.387   1_565  S
O1987      C1993   1.280       .  A
O1988     Zr1989   2.392       .  S
O1988      C1992   1.281       .  A
Zr1989     O1991   2.337   1_545  S
Zr1989     O1997   2.339   1_545  S
O1990     Zr2019   2.360       .  S
O1991     Zr2017   2.343   1_565  S
O1991     Zr2018   2.359       .  S
C1994      C2093   1.490       .  S
C1995      C2089   1.493       .  S
H1996      O1997   0.965       .  S
O1997     Zr2016   2.348       .  S
O1997     Zr2018   2.366       .  S
H1998      O1999   0.967       .  S
O1999     Zr2019   2.360       .  S
O2000     Zr2016   2.485       .  S
O2000      C2023   1.302       .  A
O2001     Zr2017   2.421       .  S
O2001      C2024   1.288       .  A
O2002     Zr2018   2.449       .  S
O2002      C2025   1.295       .  A
O2003     Zr2019   2.489       .  S
O2003      C2026   1.303       .  A
O2004     Zr2019   2.485       .  S
O2004      C2027   1.302       .  A
O2005     Zr2018   2.482       .  S
O2005      C2028   1.303       .  A
O2006     Zr2020   2.385       .  S
O2006      C2029   1.279       .  A
O2007      C2030   1.287       .  A
O2008     Zr2018   2.501       .  S
O2008      C2029   1.303       .  A
O2009     Zr2019   2.494       .  S
O2009      C2030   1.305       .  A
O2010     Zr2016   2.452       .  S
O2010      C2025   1.297       .  A
O2011     Zr2017   2.430   1_565  S
O2011      C2028   1.290       .  A
O2012      C2027   1.292       .  A
O2013      C2026   1.288       .  A
O2014     Zr2020   2.424       .  S
O2014      C2023   1.288       .  A
O2015     Zr2020   2.437   1_545  S
O2015      C2024   1.291       .  A
Zr2016     O2022   2.362       .  S
Zr2017     O2032   2.361   1_545  S
Zr2018     O2022   2.341       .  S
Zr2018     O2032   2.337       .  S
Zr2019     O2021   2.347       .  S
Zr2019     O2034   2.351       .  S
Zr2020     O2022   2.330       .  S
Zr2020     O2032   2.328       .  S
C2025      C2118   1.485       .  S
C2026      C2114   1.483       .  S
C2027      C2106   1.488       .  S
C2028      C2110   1.493       .  S
C2029      C2097   1.480       .  S
C2030      C2101   1.495       .  S
H2031      O2032   0.965       .  S
H2033      O2034   0.963       .  S
O2035     Zr2071   2.411       .  S
O2035      C2046   1.287       .  A
O2036     Zr2070   2.413       .  S
O2036      C2047   1.287       .  A
O2037     Zr2355   2.453   1_554  S
O2037      C2048   1.294       .  A
O2038     Zr2043   2.469       .  S
O2038      C2049   1.297       .  A
O2039     Zr2073   2.402       .  S
O2039      C2049   1.283       .  A
O2040     Zr2072   2.414       .  S
O2040      C2048   1.287       .  A
O2041     Zr2043   2.476       .  S
O2041      C2047   1.301       .  A
O2042     Zr2043   2.505       .  S
O2042      C2046   1.306       .  A
Zr2043     O2349   2.411       .  S
Zr2043     O2044   2.343       .  S
Zr2043     O2357   2.354       .  S
Zr2043     O2053   2.346       .  S
Zr2043     O2363   2.366       .  S
O2044     Zr2070   2.354       .  S
O2044     Zr2073   2.314       .  S
O2045     Zr2355   2.354   1_554  S
O2045     Zr2383   2.365   1_554  S
O2045     Zr2072   2.340       .  S
C2046      C2461   1.487       .  S
C2047      C2457   1.475       .  S
C2048      C2126   1.474       .  S
C2049      C2130   1.475       .  S
H2050      O2051   0.965       .  S
O2051     Zr2355   2.340   1_554  S
O2051     Zr2382   2.355       .  S
O2051     Zr2072   2.342       .  S
H2052      O2053   0.965       .  S
O2053     Zr2071   2.377       .  S
O2053     Zr2073   2.334       .  S
O2054     Zr2070   2.483       .  S
O2054      C2077   1.301       .  A
O2055     Zr2071   2.480       .  S
O2055      C2078   1.300       .  A
O2056     Zr2072   2.462       .  S
O2056      C2079   1.296       .  A
O2057     Zr2073   2.421       .  S
O2057      C2080   1.286       .  A
O2058     Zr2073   2.388       .  S
O2058      C2081   1.281       .  A
O2059     Zr2072   2.455       .  S
O2059      C2082   1.295       .  A
O2060     Zr2386   2.465       .  S
O2060      C2083   1.299       .  A
O2061     Zr2074   2.470       .  S
O2061      C2084   1.299       .  A
O2062     Zr2072   2.397       .  S
O2062      C2083   1.282       .  A
O2063     Zr2073   2.379       .  S
O2063      C2084   1.278       .  A
O2064     Zr2382   2.451       .  S
O2064      C2079   1.295       .  A
O2065     Zr2383   2.468   1_554  S
O2065      C2082   1.298       .  A
O2066     Zr2071   2.523       .  S
O2066      C2081   1.308       .  A
O2067     Zr2070   2.473       .  S
O2067      C2080   1.300       .  A
O2068     Zr2074   2.398       .  S
O2068      C2077   1.282       .  A
O2069     Zr2074   2.413       .  S
O2069      C2078   1.286       .  A
Zr2070     O2376   2.436       .  S
Zr2070     O2363   2.366       .  S
Zr2070     O2388   2.332       .  S
Zr2070     O2088   2.322       .  S
Zr2071     O2377   2.518       .  S
Zr2071     O2357   2.367       .  S
Zr2071     O2075   2.337       .  S
Zr2071     O2398   2.350       .  S
Zr2072     O2076   2.342       .  S
Zr2072     O2086   2.348       .  S
Zr2073     O2075   2.340       .  S
Zr2073     O2088   2.331       .  S
Zr2074     O2372   2.423       .  S
Zr2074     O2075   2.321       .  S
Zr2074     O2388   2.349       .  S
Zr2074     O2088   2.327       .  S
Zr2074     O2398   2.353       .  S
O2076     Zr2382   2.332       .  S
O2076     Zr2386   2.320       .  S
C2077      C2449   1.477       .  S
C2078      C2454   1.484       .  S
C2079      C2094   1.493       .  S
C2080      C2098   1.484       .  S
C2081      C2102   1.490       .  S
C2082      C2090   1.493       .  S
C2083      C2122   1.475       .  S
C2084      C2134   1.462       .  S
H2085      O2086   0.965       .  S
O2086     Zr2383   2.359   1_554  S
O2086     Zr2386   2.339       .  S
H2087      O2088   0.966       .  S
C2089      C2090   1.355       .  D
C2089      H2091   1.086       .  S
C2090      H2092   1.087       .  S
C2093      C2094   1.352       .  D
C2093      H2095   1.087       .  S
C2094      H2096   1.087       .  S
C2097      C2098   1.336       .  D
C2097      H2099   1.088       .  S
C2098      H2100   1.087       .  S
C2101      C2102   1.337       .  D
C2101      H2103   1.086       .  S
C2102      H2104   1.088       .  S
C2105      C2106   1.344       .  D
C2105      H2107   1.087       .  S
C2106      H2108   1.087       .  S
C2109      C2110   1.341       .  D
C2109      H2111   1.087       .  S
C2110      H2112   1.087       .  S
C2113      C2114   1.341       .  D
C2113      H2115   1.087       .  S
C2114      H2116   1.087       .  S
C2117      C2118   1.348       .  D
C2117      H2119   1.087       .  S
C2118      H2120   1.087       .  S
C2121      C2122   1.331       .  D
C2121      H2123   1.088       .  S
C2122      H2124   1.087       .  S
C2125      C2126   1.354       .  D
C2125      H2127   1.086       .  S
C2126      H2128   1.087       .  S
C2129      C2130   1.339       .  D
C2129      H2131   1.087       .  S
C2130      H2132   1.087       .  S
C2133      C2134   1.328       .  D
C2133      H2135   1.088       .  S
C2134      H2136   1.088       .  S
C2137      C2389   1.480       .  S
C2137      C2138   1.350       .  D
C2137      H2451   1.087       .  S
C2138      H2140   1.087       .  S
H2139      C2449   1.087       .  S
C2141      C2142   1.342       .  D
C2141      H2455   1.087       .  S
C2142      C2390   1.486       .  S
C2142      H2144   1.087   1_556  S
H2143      C2453   1.087       .  S
C2145      C2359   1.486       .  S
C2145      C2146   1.331       .  D
C2145      H2147   1.087   1_554  S
C2146      H2460   1.088       .  S
H2148      C2458   1.087       .  S
C2149      C2358   1.494       .  S
C2149      C2150   1.352       .  D
C2149      H2151   1.087       .  S
C2150      H2464   1.086       .  S
H2152      C2462   1.087       .  S
C2153      C2154   1.340       .  D
C2153      H2155   1.086       .  S
C2157      C2158   1.340       .  D
C2158      H2160   1.087       .  S
C2161      C2162   1.340       .  D
C2162      H2164   1.087       .  S
C2165      C2166   1.331       .  D
C2166      H2168   1.087       .  S
C2169      C2170   1.347       .  D
C2173      C2174   1.340       .  D
C2173      H2175   1.087       .  S
C2177      C2178   1.351       .  D
C2178      H2180   1.087       .  S
C2181      C2182   1.360       .  D
C2182      H2184   1.086       .  S
O2185     Zr2221   2.455       .  S
O2185      C2196   1.295       .  A
O2186     Zr2220   2.439       .  S
O2186      C2197   1.292       .  A
O2187     Zr2193   2.422       .  S
O2187      C2198   1.288       .  A
O2188      C2199   1.304       .  A
O2189     Zr2223   2.426       .  S
O2189      C2199   1.290       .  A
O2190     Zr2222   2.480       .  S
O2190      C2198   1.302       .  A
O2191      C2197   1.303       .  A
O2192     Zr2193   2.519       .  S
O2192      C2196   1.308       .  A
Zr2193     O2195   2.354       .  S
O2195     Zr2221   2.352       .  S
O2195     Zr2222   2.320       .  S
C2196      C2493   1.516       .  S
C2197      C2482   1.495       .  S
C2198      C2462   1.490       .  S
C2199      C2453   1.488       .  S
H2200      O2201   0.965       .  S
O2201     Zr2220   2.356       .  S
H2202      O2203   0.966       .  S
O2203     Zr2223   2.371       .  S
O2204      C2227   1.297       .  A
O2205      C2228   1.306       .  A
O2206      C2229   1.300       .  A
O2207      C2230   1.286       .  A
O2208     Zr2223   2.432       .  S
O2208      C2231   1.290       .  A
O2209     Zr2222   2.473       .  S
O2209      C2232   1.301       .  A
O2210     Zr2224   2.413       .  S
O2210      C2233   1.285       .  A
O2211      C2234   1.303       .  A
O2212      C2233   1.298       .  A
O2213      C2234   1.286       .  A
O2214     Zr2220   2.426       .  S
O2214      C2229   1.289       .  A
O2215     Zr2221   2.401       .  S
O2215      C2232   1.284       .  A
O2216      C2231   1.296       .  A
O2217      C2230   1.304       .  A
O2218      C2227   1.284       .  A
O2219     Zr2224   2.371       .  S
O2219      C2228   1.278       .  A
Zr2224     O2236   2.350       .  S
C2227      C2485   1.474       .  S
C2228      C2489   1.469       .  S
C2229      C2469   1.487       .  S
C2230      C2465   1.484       .  S
C2231      C2477   1.479       .  S
C2232      C2473   1.477       .  S
C2233      C2458   1.479       .  S
C2234      C2450   1.477       .  S
H2235      O2236   0.965       .  S
H2237      O2238   0.965       .  S
O2239     Zr2275   2.458       .  S
O2239      C2250   1.297       .  A
O2240     Zr2274   2.417       .  S
O2240      C2251   1.289       .  A
O2241     Zr2247   2.494       .  S
O2241      C2252   1.304       .  A
O2242      C2253   1.295       .  A
O2243     Zr2277   2.437       .  S
O2243      C2253   1.290       .  A
O2244     Zr2276   2.431       .  S
O2244      C2252   1.290       .  A
O2245     Zr2247   2.506       .  S
O2245      C2251   1.306       .  A
O2246     Zr2247   2.524       .  S
O2246      C2250   1.310       .  A
Zr2247     O2249   2.358       .  S
Zr2247     O2255   2.370       .  S
O2248     Zr2277   2.332       .  S
O2249     Zr2275   2.363       .  S
O2249     Zr2276   2.352       .  S
C2250      C2494   1.516       .  S
C2251      C2481   1.490       .  S
C2252      C2425   1.496       .  S
C2253      C2417   1.485       .  S
H2254      O2255   0.966       .  S
O2255     Zr2274   2.366       .  S
O2255     Zr2276   2.341       .  S
H2256      O2257   0.965       .  S
O2257     Zr2277   2.317       .  S
O2258     Zr2274   2.474       .  S
O2258      C2281   1.299       .  A
O2259     Zr2275   2.494       .  S
O2259      C2282   1.305       .  A
O2260     Zr2276   2.459       .  S
O2260      C2283   1.296       .  A
O2261     Zr2277   2.401       .  S
O2261      C2284   1.283       .  A
O2262     Zr2277   2.428       .  S
O2262      C2285   1.288       .  A
O2263     Zr2276   2.429       .  S
O2263      C2286   1.289       .  A
O2264     Zr2278   2.420       .  S
O2264      C2287   1.288       .  A
O2265      C2288   1.302       .  A
O2266     Zr2276   2.449       .  S
O2266      C2287   1.294       .  A
O2267     Zr2277   2.385       .  S
O2267      C2288   1.281       .  A
O2268     Zr2274   2.426       .  S
O2268      C2283   1.289       .  A
O2269     Zr2275   2.488       .  S
O2269      C2286   1.303       .  A
O2270      C2285   1.295       .  A
O2271      C2284   1.301       .  A
O2272     Zr2278   2.394       .  S
O2272      C2281   1.282       .  A
O2273     Zr2278   2.380       .  S
O2273      C2282   1.279       .  A
Zr2274     O2280   2.334       .  S
Zr2275     O2290   2.349       .  S
Zr2276     O2280   2.334       .  S
Zr2276     O2290   2.345       .  S
Zr2277     O2279   2.340       .  S
Zr2277     O2292   2.350       .  S
Zr2278     O2280   2.334       .  S
Zr2278     O2290   2.346       .  S
C2281      C2486   1.469       .  S
C2282      C2490   1.471       .  S
C2283      C2441   1.479       .  S
C2284      C2445   1.476       .  S
C2285      C2433   1.478       .  S
C2286      C2437   1.493       .  S
C2287      C2429   1.471       .  S
C2288      C2421   1.474       .  S
H2289      O2290   0.966       .  S
H2291      O2292   0.966       .  S
O2293     Zr2329   2.449       .  S
O2293      C2304   1.295       .  A
O2294     Zr2328   2.479       .  S
O2294      C2305   1.300       .  A
O2295     Zr2301   2.520   1_565  S
O2295      C2306   1.307       .  A
O2296      C2307   1.299       .  A
O2297     Zr2331   2.517       .  S
O2297      C2307   1.307       .  A
O2298     Zr2330   2.417       .  S
O2298      C2306   1.287       .  A
O2299     Zr2301   2.448   1_565  S
O2299      C2305   1.295       .  A
O2300     Zr2301   2.452       .  S
O2300      C2304   1.294       .  A
Zr2301     O2303   2.347   1_545  S
Zr2301     O2309   2.354   1_545  S
O2302     Zr2331   2.352       .  S
O2303     Zr2329   2.352   1_565  S
O2303     Zr2330   2.342       .  S
C2306      C2405   1.501       .  S
C2307      C2401   1.521       .  S
H2308      O2309   0.966       .  S
O2309     Zr2328   2.366       .  S
O2309     Zr2330   2.353       .  S
H2310      O2311   0.966       .  S
O2311     Zr2331   2.382       .  S
O2312     Zr2328   2.504       .  S
O2312      C2335   1.307       .  A
O2313     Zr2329   2.453       .  S
O2313      C2336   1.294       .  A
O2314     Zr2330   2.445       .  S
O2314      C2337   1.292       .  A
O2315     Zr2331   2.506       .  S
O2315      C2338   1.305       .  A
O2316     Zr2331   2.463       .  S
O2316      C2339   1.298       .  A
O2317     Zr2330   2.471       .  S
O2317      C2340   1.301       .  A
O2318     Zr2332   2.480       .  S
O2318      C2341   1.299       .  A
O2319      C2342   1.290       .  A
O2320     Zr2330   2.433       .  S
O2320      C2341   1.290       .  A
O2321     Zr2331   2.521       .  S
O2321      C2342   1.308       .  A
O2322     Zr2328   2.432       .  S
O2322      C2337   1.293       .  A
O2323     Zr2329   2.411   1_565  S
O2323      C2340   1.285       .  A
O2324      C2339   1.292       .  A
O2325      C2338   1.288       .  A
O2326     Zr2332   2.405       .  S
O2326      C2335   1.284       .  A
O2327     Zr2332   2.434   1_545  S
O2327      C2336   1.292       .  A
Zr2328     O2334   2.347       .  S
Zr2329     O2344   2.355   1_545  S
Zr2330     O2334   2.337       .  S
Zr2330     O2344   2.334       .  S
Zr2331     O2333   2.363       .  S
Zr2331     O2346   2.356       .  S
Zr2332     O2334   2.331       .  S
Zr2332     O2344   2.325       .  S
C2337      C2430   1.476       .  S
C2338      C2426   1.495       .  S
C2339      C2418   1.482       .  S
C2340      C2422   1.482       .  S
C2341      C2409   1.493       .  S
C2342      C2413   1.505       .  S
H2343      O2344   0.965       .  S
H2345      O2346   0.966       .  S
O2347     Zr2383   2.474       .  S
O2347      C2358   1.299       .  A
O2348     Zr2382   2.390       .  S
O2348      C2359   1.281       .  A
O2349      C2360   1.286       .  A
O2350     Zr2355   2.441       .  S
O2350      C2361   1.294       .  A
O2351     Zr2385   2.449       .  S
O2351      C2361   1.293       .  A
O2352     Zr2384   2.498       .  S
O2352      C2360   1.304       .  A
O2353     Zr2355   2.512       .  S
O2353      C2359   1.308   1_556  A
O2354     Zr2355   2.459       .  S
O2354      C2358   1.296       .  A
Zr2355     O2356   2.345       .  S
Zr2355     O2365   2.365       .  S
O2356     Zr2382   2.347   1_556  S
O2356     Zr2385   2.348       .  S
O2357     Zr2384   2.353       .  S
C2360      C2438   1.488       .  S
C2361      C2442   1.481       .  S
H2362      O2363   0.966       .  S
O2363     Zr2384   2.337       .  S
H2364      O2365   0.967       .  S
O2365     Zr2383   2.359       .  S
O2365     Zr2385   2.351       .  S
O2366     Zr2382   2.434       .  S
O2366      C2389   1.291       .  A
O2367     Zr2383   2.490       .  S
O2367      C2390   1.302       .  A
O2368     Zr2384   2.505       .  S
O2368      C2391   1.306       .  A
O2369     Zr2385   2.465       .  S
O2369      C2392   1.298       .  A
O2370     Zr2385   2.464       .  S
O2370      C2393   1.296       .  A
O2371     Zr2384   2.466       .  S
O2371      C2394   1.298       .  A
O2372      C2395   1.289       .  A
O2373     Zr2386   2.420   1_556  S
O2373      C2396   1.287       .  A
O2374     Zr2384   2.461       .  S
O2374      C2395   1.298       .  A
O2375     Zr2385   2.464       .  S
O2375      C2396   1.300       .  A
O2376      C2391   1.290       .  A
O2377      C2394   1.308       .  A
O2378     Zr2383   2.486       .  S
O2378      C2393   1.302       .  A
O2379     Zr2382   2.451   1_556  S
O2379      C2392   1.293       .  A
O2380     Zr2386   2.447       .  S
O2380      C2389   1.293       .  A
O2381     Zr2386   2.414       .  S
O2381      C2390   1.287   1_554  A
Zr2382     O2400   2.331   1_554  S
Zr2383     O2387   2.344       .  S
Zr2384     O2388   2.354       .  S
Zr2384     O2398   2.378       .  S
Zr2385     O2387   2.343       .  S
Zr2385     O2400   2.348       .  S
Zr2386     O2387   2.353   1_554  S
Zr2386     O2400   2.339   1_554  S
C2391      C2406   1.504       .  S
C2392      C2410   1.495       .  S
C2393      C2414   1.508       .  S
C2394      C2402   1.521       .  S
C2395      C2434   1.476       .  S
C2396      C2446   1.482       .  S
H2397      O2398   0.967       .  S
H2399      O2400   0.965       .  S
C2401      C2402   1.359       .  D
C2401      H2403   1.086       .  S
C2402      H2404   1.086       .  S
C2405      C2406   1.345       .  D
C2405      H2407   1.087       .  S
C2406      H2408   1.086       .  S
C2409      C2410   1.349       .  D
C2409      H2411   1.087       .  S
C2410      H2412   1.086       .  S
C2413      C2414   1.350       .  D
C2413      H2415   1.087       .  S
C2414      H2416   1.086       .  S
C2417      C2418   1.345       .  D
C2417      H2419   1.087       .  S
C2418      H2420   1.087       .  S
C2421      C2422   1.334       .  D
C2421      H2423   1.088       .  S
C2422      H2424   1.087       .  S
C2425      C2426   1.343       .  D
C2425      H2427   1.087       .  S
C2426      H2428   1.087       .  S
C2429      C2430   1.344       .  D
C2429      H2431   1.087       .  S
C2430      H2432   1.087       .  S
C2433      C2434   1.341       .  D
C2433      H2435   1.087       .  S
C2434      H2436   1.087       .  S
C2437      C2438   1.341       .  D
C2437      H2439   1.087       .  S
C2438      H2440   1.087       .  S
C2441      C2442   1.345       .  D
C2441      H2443   1.087       .  S
C2442      H2444   1.087       .  S
C2445      C2446   1.336       .  D
C2445      H2447   1.088       .  S
C2446      H2448   1.087       .  S
C2449      C2450   1.336       .  D
C2450      H2452   1.087       .  S
C2453      C2454   1.340       .  D
C2454      H2456   1.087       .  S
C2457      C2458   1.337       .  D
C2457      H2459   1.087       .  S
C2461      C2462   1.340       .  D
C2461      H2463   1.087       .  S
C2465      C2466   1.338       .  D
C2465      H2467   1.087       .  S
C2469      C2470   1.342       .  D
C2470      H2472   1.087       .  S
C2473      C2474   1.333       .  D
C2474      H2476   1.088       .  S
C2477      C2478   1.341       .  D
C2478      H2480   1.087       .  S
C2481      C2482   1.343       .  D
C2485      C2486   1.336       .  D
C2485      H2487   1.087       .  S
C2489      C2490   1.325       .  D
C2490      H2492   1.087       .  S
C2493      C2494   1.355       .  D
C2494      H2496   1.087       .  S
