geometry optimzed in LAMMPS
_audit_creation_date              2020-11-30 
_audit_creation_method            'lammps2cif' 
_symmetry_space_group_name_H-M    'P1' 
_symmetry_Int_Tables_number       1 
_symmetry_cell_setting            triclinic 
loop_ 
_symmetry_equiv_pos_as_xyz 
  x,y,z 
_cell_length_a                    36.19842783 
_cell_length_b                    30.824385256326956 
_cell_length_c                    34.67001508189537 
_cell_angle_alpha                 84.33468993696903 
_cell_angle_beta                  88.42093309549715 
_cell_angle_gamma                 120.9570050850075 
loop_ 
_atom_site_label 
_atom_site_type_symbol 
_atom_site_fract_x 
_atom_site_fract_y 
_atom_site_fract_z 
_atom_site_charge 
Zr1        Zr  0.26519343  0.12837524  0.80223295     2.17500
O2          O  0.22788156  0.11458888  0.74303310    -0.50500
O3          O  0.19976841  0.09467733  0.84556568    -0.73700
O4          O  0.23641465  0.04181086  0.78489748    -0.80500
O5          O  0.28995705  0.26596836  0.79743798    -0.82300
O6          O  0.28039047  0.01307764  0.80498790    -0.77900
O7          O  0.24228998  0.18815849  0.77985298    -0.89500
O8          O  0.21840420  0.10699865  0.90751256    -0.75500
O9          O  0.27681148  0.08455614  0.85677234    -0.85000
O10         O  0.28266061  0.18049083  0.85310376    -0.84700
O11         O  0.32471550  0.12027111  0.78041889    -0.71400
O12         O  0.32838139  0.20883922  0.77711274    -0.83600
Zr13       Zr  0.41752816  0.20882191  0.86331268     2.26400
Zr14       Zr  0.33748496  0.07848456  0.83611584     2.06300
Zr15       Zr  0.34598925  0.25948165  0.82900630     2.10000
Zr16       Zr  0.29438800  0.13699977  0.90739141     1.78800
O17         O  0.38571147  0.33466826  0.78055122    -0.92400
O18         O  0.25888587  0.05145751  0.94342154    -0.40200
O19         O  0.35813640  0.21709059  0.88441921    -0.76800
O20         O  0.35425639  0.12851280  0.88884602    -0.95500
O21         O  0.40062249  0.15787737  0.81188242    -0.88800
O22         O  0.40632208  0.25295434  0.80861858    -0.91600
C23         C  0.19119703  0.09383878  0.88187739     1.02100
C24         C  0.25581285  0.23541817  0.78202719     1.15100
C25         C  0.24792517  0.00850735  0.78805558     1.05800
O26         O  0.30306597  0.00174413  0.88345881    -0.93800
O27         O  0.39393238  0.07144621  0.86650337    -0.89500
O28         O  0.43910318  0.14795409  0.88717417    -0.82700
C29         C  0.42693420  0.10140757  0.88353654     1.12500
O30         O  0.35787856  0.20766661  0.69690561    -0.95800
Zr31       Zr  0.38812806  0.20067903  0.75763743     1.88900
O32         O  0.48179009  0.24016672  0.81917305    -0.72400
O33         O  0.36932184  0.04711928  0.79201600    -0.51700
O34         O  0.39361211  0.14529178  0.71521145    -0.96400
O35         O  0.43242538  0.28498647  0.71978681    -0.53600
O36         O  0.46140718  0.22023025  0.75875667    -0.72900
C37         C  0.48914163  0.23576581  0.78383635     0.99400
O38         O  0.46379458  0.23714889  0.91648602    -0.61700
O39         O  0.31796230  0.29802952  0.86993961    -0.56600
O40         O  0.44202771  0.29174896  0.88606052    -0.93200
O41         O  0.39874837  0.32114863  0.86526051    -0.91700
O42         O  0.28190621  0.18915828  0.94805371    -0.92000
O43         O  0.32111846  0.13877380  0.97129823    -0.90800
C44         C  0.43001196  0.32461032  0.88359231     1.18300
H45         H  0.26009581  0.18717729  0.85950639     0.34200
H46         H  0.35999223  0.11234906  0.91123221     0.45100
H47         H  0.43180860  0.28632344  0.80122364     0.38600
H48         H  0.31714466  0.10004503  0.75917948     0.35100
H49         H  0.24234564  0.05270097  0.96607459     0.26800
H50         H  0.35458717  0.00997943  0.80068460     0.32800
H51         H  0.41952186  0.16836150  0.69689203     0.38700
H52         H  0.25598323  0.16452529  0.96586636     0.33200
H53         H  0.32217053  0.32855008  0.85334359     0.32000
H54         H  0.37504211  0.35726524  0.78664804     0.33700
H55         H  0.44636474  0.27943547  0.69738084     0.32700
H56         H  0.35209327  0.16593625  0.96707412     0.36700
H57         H  0.44912689  0.20902458  0.93830277     0.29400
H58         H  0.19870833  0.08401121  0.75019962     0.33600
H59         H  0.37881804  0.21205208  0.67565287     0.36500
H60         H  0.28622253  0.27428461  0.87351686     0.29100
H61         H  0.49029131  0.23740187  0.90809859     0.42000
H62         H  0.27215246  0.99116498  0.88613334     0.32000
H63         H  0.23641733  0.02945108  0.92698931     0.39700
H64         H  0.45659393  0.30493334  0.73549649     0.31500
H65         H  0.35851268  0.04986290  0.76651241     0.31600
H66         H  0.24273396  0.10390794  0.72525910     0.31800
C67         C  0.11377206  0.29169891  0.74567328     0.87300
C68         C  0.12272904  0.30219735  0.70135871    -0.52900
C69         C  0.16586113  0.33025961  0.68850488     0.10200
C70         C  0.19555392  0.34493000  0.72244360     0.21200
C71         C  0.13810363  0.26557790  0.75955862    -0.53700
C72         C  0.18105761  0.29334650  0.74724781     0.10300
C73         C  0.13701335  0.34382373  0.75963850    -0.53200
C74         C  0.17965080  0.37188814  0.74750363     0.10900
H75         H  0.09670450  0.28774203  0.68253908     0.15400
H76         H  0.23080589  0.36794090  0.71395087     0.01100
H77         H  0.12280997  0.22849522  0.77724744     0.15700
H78         H  0.12104213  0.35761472  0.77750466     0.15500
C79         C  0.06651415  0.04001590  0.92152986     0.87300
C80         C  0.04143706  0.48729617  0.90909181    -0.52900
C81         C  0.49900355  0.46199079  0.92166085     0.10200
C82         C  0.48560453  0.49234644  0.94533223     0.21200
C83         C  0.04372417  0.06786330  0.90682844    -0.53700
C84         C  0.50095349  0.04263184  0.91989683     0.10300
C85         C  0.05847097  0.03194810  0.96596811    -0.53200
C86         C  0.01552938  0.00635699  0.97946065     0.10900
H87         H  0.05578775  0.47077619  0.89225730     0.15400
H88         H  0.45045828  0.47161715  0.95416820     0.01100
H89         H  0.05986133  0.10412719  0.88798379     0.15700
H90         H  0.08481965  0.04488417  0.98444538     0.15500
Zr91       Zr  0.47439659  0.05067384  0.53598668     2.17500
O92         O  0.45070617  0.06862475  0.59571061    -0.50500
O93         O  0.44379386  0.09123547  0.49482481    -0.73700
O94         O  0.03128649  0.13526215  0.55538556    -0.80500
O95         O  0.37049682  0.41729124  0.53587209    -0.82300
O96         O  0.09765851  0.15414283  0.53066605    -0.77900
O97         O  0.39529561  0.49399363  0.55797194    -0.89500
O98         O  0.45151666  0.07882023  0.43205186    -0.75500
O99         O  0.02652424  0.09127898  0.48042663    -0.85000
O100        O  0.44509123  0.50274830  0.48373156    -0.84700
O101        O  0.03661785  0.04690270  0.55420189    -0.71400
O102        O  0.45915484  0.46612177  0.55742271    -0.83600
Zr103      Zr  0.04416467  0.45420151  0.46548697     2.26400
Zr104      Zr  0.08755472  0.08557671  0.49737577     2.06300
Zr105      Zr  0.43097123  0.41946288  0.50393729     2.10000
Zr106      Zr  0.49669273  0.04274514  0.42826793     1.78800
O107        O  0.39904223  0.34523664  0.55360708    -0.92400
O108        O  0.04332033  0.12966873  0.39571439    -0.40200
O109        O  0.48229144  0.45846501  0.44774331    -0.76800
O110        O  0.05926716  0.03922132  0.44344324    -0.95500
O111        O  0.07322433  0.00217252  0.51786397    -0.88800
O112        O  0.49174256  0.41372154  0.52092855    -0.91600
C113        C  0.43671568  0.09317717  0.45872245     1.02100
C114        C  0.36479836  0.44815568  0.55334696     1.15100
C115        C  0.07329647  0.16400370  0.55024307     1.05800
O116        O  0.12326300  0.16051969  0.44821995    -0.93800
O117        O  0.14888594  0.08900323  0.46607038    -0.89500
O118        O  0.12418429  0.01236406  0.44394319    -0.82700
C119        C  0.15469210  0.05819521  0.44859381     1.12500
O120        O  0.98219026  0.44902362  0.63628946    -0.95800
Zr121      Zr  0.02114556  0.46174612  0.57359988     1.88900
O122        O  0.07399784  0.41369006  0.50752850    -0.72400
O123        O  0.14709022  0.10907932  0.53828553    -0.51700
O124        O  0.07581807  0.00922157  0.61682824    -0.96400
O125        O  0.48517124  0.37422350  0.60657446    -0.53600
O126        O  0.07373601  0.43667953  0.56797713    -0.72900
C127        C  0.08549657  0.41802805  0.54236520     0.99400
O128        O  0.06265764  0.42787891  0.40763453    -0.61700
O129        O  0.37129012  0.38982411  0.46257207    -0.56600
O130        O  0.98679707  0.37232619  0.44309552    -0.93200
O131        O  0.42034714  0.35278164  0.46827374    -0.91700
O132        O  0.43837104  0.49592849  0.38880522    -0.92000
O133        O  0.02152145  0.04500921  0.36162283    -0.90800
C134        C  0.44473637  0.34374676  0.44787715     1.18300
H135        H  0.41781520  0.49933609  0.47809384     0.34200
H136        H  0.08029409  0.05485174  0.42096385     0.45100
H137        H  0.48377066  0.37857721  0.52711217     0.38600
H138        H  0.04844225  0.06574712  0.57586147     0.35100
H139        H  0.02665784  0.13332377  0.37479356     0.26800
H140        H  0.16673174  0.14640296  0.53139349     0.32800
H141        H  0.07999912  0.48400927  0.63236010     0.38700
H142        H  0.43468159  0.02170493  0.37267479     0.33200
H143        H  0.34615955  0.36044522  0.47857454     0.32000
H144        H  0.37098804  0.32079722  0.54436082     0.33700
H145        H  0.00049667  0.37623730  0.63007182     0.32700
H146        H  0.03159670  0.02054309  0.36353588     0.36700
H147        H  0.07697244  0.45892910  0.38822893     0.29400
H148        H  0.45343802  0.10218920  0.58895311     0.33600
H149        H  0.00068565  0.44809758  0.65646425     0.36500
H150        H  0.36402957  0.41679420  0.45962564     0.29100
H151        H  0.08597022  0.42157403  0.41468268     0.42000
H152        H  0.11162168  0.18208210  0.45458711     0.32000
H153        H  0.04347504  0.15190162  0.41454039     0.39700
H154        H  0.49339178  0.35547459  0.59014377     0.31500
H155        H  0.13439072  0.10474320  0.56506385     0.31600
H156        H  0.47337065  0.07490685  0.61353368     0.31800
C157        C  0.28562769  0.13143694  0.41144752     0.87300
C158        C  0.29378632  0.13613134  0.36732794    -0.52900
C159        C  0.33645214  0.16024790  0.35372639     0.10200
C160        C  0.36727597  0.17710108  0.38659400     0.21200
C161        C  0.30854079  0.10472658  0.42862520    -0.53700
C162        C  0.35135559  0.12934142  0.41598081     0.10300
C163        C  0.31339299  0.18705004  0.42133528    -0.53200
C164        C  0.35663923  0.21056315  0.40835565     0.10900
H165        H  0.26737466  0.12174216  0.34891215     0.15400
H166        H  0.40224915  0.19606978  0.37737671     0.01100
H167        H  0.29303832  0.07137926  0.45060548     0.15700
H168        H  0.30059835  0.20475130  0.43856530     0.15500
C169        C  0.23365755  0.37475888  0.58898565     0.87300
C170        C  0.21197967  0.40343975  0.57299962    -0.52900
C171        C  0.16909772  0.37922116  0.58500104     0.10200
C172        C  0.15177997  0.32973538  0.61266781     0.21200
C173        C  0.22458496  0.36728152  0.63324866    -0.53700
C174        C  0.18174154  0.34341531  0.64620891     0.10300
C175        C  0.20542780  0.32031875  0.57693331    -0.53200
C176        C  0.16205522  0.29714509  0.58940282     0.10900
H177        H  0.22832480  0.43787795  0.55208300     0.15400
H178        H  0.11673995  0.31127499  0.62135714     0.01100
H179        H  0.25044350  0.37939114  0.65224471     0.15700
H180        H  0.21810533  0.30310449  0.55900784     0.15500
Zr181      Zr  0.10036490  0.29197630  0.13456765     2.17500
O182        O  0.06195764  0.27885261  0.07602272    -0.50500
O183        O  0.03517461  0.25895494  0.17799612    -0.73700
O184        O  0.07150094  0.20573131  0.11638466    -0.80500
O185        O  0.12601990  0.42949795  0.12969423    -0.82300
O186        O  0.11446983  0.17581379  0.13711536    -0.77900
O187        O  0.07786962  0.35203174  0.11196885    -0.89500
O188        O  0.05327757  0.27118962  0.24008428    -0.75500
O189        O  0.11049982  0.24735213  0.18954733    -0.85000
O190        O  0.11814005  0.34428432  0.18538464    -0.84700
O191        O  0.15940189  0.28247516  0.11358744    -0.71400
O192        O  0.16442346  0.37171577  0.10945459    -0.83600
Zr193      Zr  0.25178389  0.36950445  0.19712272     2.26400
Zr194      Zr  0.17054127  0.23968168  0.16977026     2.06300
Zr195      Zr  0.18212791  0.42263883  0.16117680     2.10000
Zr196      Zr  0.12881025  0.30012588  0.24004124     1.78800
O197        O  0.22229819  0.49597049  0.11119768    -0.92400
O198        O  0.09211446  0.21499213  0.27694624    -0.40200
O199        O  0.19294684  0.37943401  0.21693392    -0.76800
O200        O  0.18785692  0.28986601  0.22225203    -0.95500
O201        O  0.23455054  0.31826481  0.14592629    -0.88800
O202        O  0.24194075  0.41454963  0.14206315    -0.91600
C203        C  0.02640320  0.25823286  0.21422226     1.02100
C204        C  0.09175335  0.39934292  0.11421305     1.15100
C205        C  0.08259939  0.17205283  0.11965222     1.05800
O206        O  0.13263451  0.16451556  0.21848861    -0.93800
O207        O  0.22615207  0.23108577  0.20028351    -0.89500
O208        O  0.27410168  0.30851191  0.21815210    -0.82700
C209        C  0.26053795  0.26134373  0.21556858     1.12500
O210        O  0.19592513  0.36958631  0.02924532    -0.95800
Zr211      Zr  0.22377690  0.36205001  0.09126949     1.88900
O212        O  0.31697318  0.40232851  0.15388678    -0.72400
O213        O  0.20152766  0.20455673  0.12852220    -0.51700
O214        O  0.22866862  0.30550346  0.04971705    -0.96400
O215        O  0.27018817  0.44598234  0.05347637    -0.53600
O216        O  0.29656840  0.38018383  0.09390513    -0.72900
C217        C  0.32439037  0.39695486  0.11883277     0.99400
O218        O  0.29159573  0.39072503  0.25478803    -0.61700
O219        O  0.15729205  0.46601323  0.20014199    -0.56600
O220        O  0.27771462  0.45259986  0.21975742    -0.93200
O221        O  0.23544101  0.48312008  0.19807144    -0.91700
O222        O  0.11761060  0.35390824  0.27986149    -0.92000
O223        O  0.15598125  0.30275194  0.30379640    -0.90800
C224        C  0.26624151  0.48593552  0.21690529     1.18300
H225        H  0.09586483  0.35153750  0.19162334     0.34200
H226        H  0.19336076  0.27349230  0.24468633     0.45100
H227        H  0.26774515  0.44768315  0.13482835     0.38600
H228        H  0.15197899  0.26243773  0.09224738     0.35100
H229        H  0.07501921  0.21672142  0.29888905     0.26800
H230        H  0.18466903  0.16727425  0.13692019     0.32800
H231        H  0.25704529  0.32683391  0.03423881     0.38700
H232        H  0.09119836  0.33002143  0.29738106     0.33200
H233        H  0.16095775  0.49531312  0.18221988     0.32000
H234        H  0.20648862  0.51432446  0.11114014     0.33700
H235        H  0.28501177  0.43993922  0.03208328     0.32700
H236        H  0.18760703  0.32682788  0.29884284     0.36700
H237        H  0.27495673  0.36032425  0.27457584     0.29400
H238        H  0.03301156  0.24791425  0.08329309     0.33600
H239        H  0.21757891  0.37389854  0.00875511     0.36500
H240        H  0.12559841  0.44262352  0.20525097     0.29100
H241        H  0.31890058  0.39194248  0.24804552     0.42000
H242        H  0.10151187  0.15105683  0.21598522     0.32000
H243        H  0.07015367  0.19275685  0.26023712     0.39700
H244        H  0.29354933  0.46590866  0.06992525     0.31500
H245        H  0.19304668  0.20886590  0.10216250     0.31600
H246        H  0.07677688  0.26885278  0.05760421     0.31800
C247        C  0.44894562  0.45463250  0.07896454     0.87300
C248        C  0.45727351  0.46460662  0.03454592    -0.52900
C249        C  0.00025043  0.49295960  0.02136010     0.10200
C250        C  0.03042726  0.00779522  0.05528509     0.21200
C251        C  0.47387281  0.42918574  0.09269887    -0.53700
C252        C  0.01657739  0.45706298  0.07997781     0.10300
C253        C  0.47246151  0.00693907  0.09316875    -0.53200
C254        C  0.01489722  0.03509061  0.08031061     0.10900
H255        H  0.43101349  0.45001761  0.01597121     0.15400
H256        H  0.06558018  0.03076338  0.04633816     0.01100
H257        H  0.45902423  0.39232637  0.11064965     0.15700
H258        H  0.45677278  0.02102819  0.11106981     0.15500
C259        C  0.40176431  0.20297964  0.25324773     0.87300
C260        C  0.37709631  0.14929072  0.24220456    -0.52900
C261        C  0.33473618  0.12300461  0.25536411     0.10200
C262        C  0.32049751  0.15321437  0.27825670     0.21200
C263        C  0.37792797  0.22908625  0.23767937    -0.53700
C264        C  0.33522376  0.20313175  0.25094108     0.10300
C265        C  0.39408489  0.19650579  0.29757414    -0.53200
C266        C  0.35123448  0.17027816  0.31133608     0.10900
H267        H  0.39194777  0.13314596  0.22557613     0.15400
H268        H  0.28540682  0.13156046  0.28744536     0.01100
H269        H  0.39340766  0.26493047  0.21832739     0.15700
H270        H  0.42069903  0.21181379  0.31572827     0.15500
C271        C  0.36717188  0.41118820  0.10597108    -0.12500
C272        C  0.40353914  0.42669979  0.09335890    -0.14000
C273        C  0.04096867  0.08600663  0.08984055    -0.12500
C274        C  0.05874923  0.12660311  0.10194250    -0.14000
C275        C  0.04529355  0.43863999  0.08917650    -0.12500
C276        C  0.06673650  0.42041212  0.09916492    -0.14000
C277        C  0.30735426  0.22246940  0.24062262    -0.12500
C278        C  0.28591302  0.24059812  0.23032389    -0.14000
C279        C  0.30748425  0.07142961  0.24749789    -0.11900
C280        C  0.28919878  0.03054721  0.23580995    -0.14000
C281        C  0.98335461  0.24292113  0.22693569    -0.12500
C282        C  0.44699323  0.22850413  0.23882851    -0.14000
C283        C  0.23835578  0.10284272  0.42437963    -0.12500
C284        C  0.19946056  0.07858435  0.43383652    -0.14000
C285        C  0.42056881  0.29790863  0.42936004    -0.12500
C286        C  0.39146863  0.25900397  0.41883803    -0.14000
C287        C  0.40744488  0.10901719  0.44700874    -0.12500
C288        C  0.38109966  0.11744606  0.43362882    -0.14000
C289        C  0.32000684  0.42780113  0.56781540    -0.12500
C290        C  0.28103081  0.40327462  0.57672466    -0.14000
C291        C  0.12694631  0.24947806  0.57811662    -0.12500
C292        C  0.09755986  0.21067452  0.56773883    -0.14000
C293        C  0.14052244  0.39305222  0.56755123    -0.12500
C294        C  0.11497657  0.40266320  0.55400214    -0.14000
C295        C  0.45289339  0.36948982  0.90225376    -0.12500
C296        C  0.47124697  0.41053457  0.91370692    -0.14000
C297        C  0.14807413  0.07846419  0.89495245    -0.12500
C298        C  0.11185564  0.06462670  0.90713557    -0.14000
C299        C  0.45231357  0.08105266  0.89911095    -0.12500
C300        C  0.47366276  0.06288081  0.90967929    -0.14000
C301        C  0.23059101  0.25605783  0.76686842    -0.12500
C302        C  0.20933143  0.27442735  0.75671104    -0.14000
C303        C  0.03177326  0.24927835  0.77112652    -0.12500
C304        C  0.06820781  0.26410402  0.75928062    -0.14000
C305        C  0.20576274  0.42226767  0.75820085    -0.12500
C306        C  0.22387118  0.46262152  0.77073967    -0.14000
Zr307      Zr  0.26518145  0.62832153  0.80185365     2.17500
O308        O  0.22788739  0.61449252  0.74262162    -0.50500
O309        O  0.19994873  0.59466870  0.84540238    -0.73700
O310        O  0.23634035  0.54172410  0.78477839    -0.80500
O311        O  0.28934530  0.76530751  0.79668664    -0.82300
O312        O  0.28074171  0.51349000  0.80456889    -0.77900
O313        O  0.24199163  0.68754047  0.77884150    -0.89500
O314        O  0.21882354  0.60707680  0.90729067    -0.75500
O315        O  0.27715567  0.58463673  0.85625102    -0.85000
O316        O  0.28245071  0.68026901  0.85284483    -0.84700
O317        O  0.32494719  0.62074460  0.77990767    -0.71400
O318        O  0.32808115  0.70904048  0.77685896    -0.83600
Zr319      Zr  0.41771284  0.70959869  0.86263441     2.26400
Zr320      Zr  0.33802124  0.57906229  0.83547786     2.06300
Zr321      Zr  0.34549627  0.75956691  0.82880291     2.10000
Zr322      Zr  0.29470395  0.63694512  0.90695327     1.78800
O323        O  0.38474236  0.83529255  0.78078586    -0.92400
O324        O  0.25884804  0.55154276  0.94327271    -0.40200
O325        O  0.35807601  0.71726702  0.88395419    -0.76800
O326        O  0.35480118  0.62903385  0.88817249    -0.95500
O327        O  0.40076904  0.65871741  0.81118331    -0.88800
O328        O  0.40610385  0.75369984  0.80814610    -0.91600
C329        C  0.19154519  0.59386981  0.88173988     1.02100
C330        C  0.25538701  0.73474950  0.78103508     1.15100
C331        C  0.24803586  0.50860501  0.78789516     1.05800
O332        O  0.30373448  0.50309559  0.88358155    -0.93800
O333        O  0.39513867  0.57286925  0.86543606    -0.89500
O334        O  0.44064929  0.64969478  0.88549744    -0.82700
C335        C  0.42845126  0.60308924  0.88203867     1.12500
O336        O  0.35666065  0.70663935  0.69661571    -0.95800
Zr337      Zr  0.38803860  0.70150076  0.75709557     1.88900
O338        O  0.48196598  0.74192409  0.81830446    -0.72400
O339        O  0.36947967  0.54698341  0.79168091    -0.51700
O340        O  0.39479628  0.64804951  0.71349974    -0.96400
O341        O  0.43156398  0.78662971  0.72027447    -0.53600
O342        O  0.46114877  0.72036173  0.75828998    -0.72900
C343        C  0.48908002  0.73660562  0.78317589     0.99400
O344        O  0.46248625  0.73683203  0.91687844    -0.61700
O345        O  0.31675885  0.79747541  0.86966375    -0.56600
O346        O  0.44202232  0.79213041  0.88578867    -0.93200
O347        O  0.39799626  0.82076318  0.86569576    -0.91700
O348        O  0.28334349  0.68961876  0.94792501    -0.92000
O349        O  0.32144789  0.63729615  0.97070043    -0.90800
C350        C  0.42950288  0.82450009  0.88380525     1.18300
H351        H  0.25981040  0.68681317  0.85928904     0.34200
H352        H  0.36081154  0.61302052  0.91046338     0.45100
H353        H  0.43144648  0.78720076  0.80075471     0.38600
H354        H  0.31743696  0.60053709  0.75865812     0.35100
H355        H  0.24191766  0.55283482  0.96558510     0.26800
H356        H  0.35407902  0.50973021  0.80006200     0.32800
H357        H  0.42024206  0.67199318  0.69495667     0.38700
H358        H  0.25723758  0.66523456  0.96562570     0.33200
H359        H  0.31952175  0.82697615  0.85270704     0.32000
H360        H  0.37852286  0.86030344  0.79036768     0.33700
H361        H  0.44406654  0.78160238  0.69657928     0.32700
H362        H  0.35098720  0.66788802  0.96766777     0.36700
H363        H  0.44728416  0.70827781  0.93833216     0.29400
H364        H  0.19899963  0.58335474  0.74956481     0.33600
H365        H  0.37850168  0.71396800  0.67516700     0.36500
H366        H  0.28522822  0.77269711  0.87411761     0.29100
H367        H  0.48922278  0.73731244  0.90903438     0.42000
H368        H  0.27267127  0.49190693  0.88566306     0.32000
H369        H  0.23671743  0.52941306  0.92664648     0.39700
H370        H  0.45677795  0.80560204  0.73519099     0.31500
H371        H  0.35929008  0.55050046  0.76600285     0.31600
H372        H  0.24331069  0.60472160  0.72466246     0.31800
C373        C  0.11366605  0.79181867  0.74551893     0.87300
C374        C  0.12271660  0.80236028  0.70120378    -0.52900
C375        C  0.16587124  0.83033168  0.68844793     0.10200
C376        C  0.19547409  0.84487793  0.72242225     0.21200
C377        C  0.13787904  0.76554698  0.75942780    -0.53700
C378        C  0.18083736  0.79319979  0.74710490     0.10300
C379        C  0.13696667  0.84391737  0.75953145    -0.53200
C380        C  0.17962091  0.87190603  0.74745235     0.10900
H381        H  0.09676150  0.78798105  0.68230270     0.15400
H382        H  0.23073824  0.86781941  0.71401243     0.01100
H383        H  0.12246879  0.72835115  0.77696196     0.15700
H384        H  0.12100898  0.85777094  0.77734655     0.15500
C385        C  0.06709337  0.54026380  0.92136164     0.87300
C386        C  0.04084248  0.98698165  0.90935193    -0.52900
C387        C  0.49844413  0.96143110  0.92236355     0.10200
C388        C  0.48510164  0.99167637  0.94615173     0.21200
C389        C  0.04463753  0.56837443  0.90639870    -0.53700
C390        C  0.50181943  0.54346369  0.91904384     0.10300
C391        C  0.05876612  0.53214431  0.96574982    -0.53200
C392        C  0.01577931  0.50672626  0.97899940     0.10900
H393        H  0.05512982  0.97054718  0.89234052     0.15400
H394        H  0.44998639  0.97079197  0.95513610     0.01100
H395        H  0.06104257  0.60466296  0.88757972     0.15700
H396        H  0.08497143  0.54485477  0.98437995     0.15500
Zr397      Zr  0.47448039  0.55117863  0.53631399     2.17500
O398        O  0.45097471  0.56922887  0.59607965    -0.50500
O399        O  0.44385305  0.59161914  0.49509611    -0.73700
O400        O  0.03167381  0.63605434  0.55503263    -0.80500
O401        O  0.37071020  0.91626185  0.53559940    -0.82300
O402        O  0.09801922  0.65451533  0.53054203    -0.77900
O403        O  0.39548226  0.99276251  0.55809071    -0.89500
O404        O  0.45261135  0.58012348  0.43226572    -0.75500
O405        O  0.02713088  0.59138812  0.48105599    -0.85000
O406        O  0.44494409  0.00217804  0.48340260    -0.84700
O407        O  0.03629890  0.54667285  0.55510717    -0.71400
O408        O  0.45929630  0.96565009  0.55686968    -0.83600
Zr409      Zr  0.04468197  0.95454626  0.46494357     2.26400
Zr410      Zr  0.08771817  0.58491824  0.49864110     2.06300
Zr411      Zr  0.43133369  0.91905267  0.50327195     2.10000
Zr412      Zr  0.49709125  0.54306806  0.42877693     1.78800
O413        O  0.39845615  0.84384296  0.55205637    -0.92400
O414        O  0.04468441  0.62897097  0.39476841    -0.40200
O415        O  0.48267226  0.95842382  0.44713817    -0.76800
O416        O  0.05940946  0.53919247  0.44435751    -0.95500
O417        O  0.07304296  0.50131724  0.51860947    -0.88800
O418        O  0.49236961  0.91385719  0.52033471    -0.91600
C419        C  0.43722767  0.59390693  0.45889796     1.02100
C420        C  0.36504504  0.94693594  0.55341638     1.15100
C421        C  0.07368297  0.66468217  0.54984297     1.05800
O422        O  0.12736115  0.66261865  0.45255415    -0.93800
O423        O  0.14872980  0.58764131  0.46708087    -0.89500
O424        O  0.12362186  0.51155723  0.44389307    -0.82700
C425        C  0.15432719  0.55713539  0.44894344     1.12500
O426        O  0.98415707  0.95317127  0.63563841    -0.95800
Zr427      Zr  0.02151164  0.96211521  0.57298686     1.88900
O428        O  0.07560413  0.91533130  0.50698866    -0.72400
O429        O  0.14394406  0.60456613  0.54286909    -0.51700
O430        O  0.07523626  0.50951909  0.61740134    -0.96400
O431        O  0.48481642  0.87471610  0.60633351    -0.53600
O432        O  0.07371734  0.93645062  0.56787097    -0.72900
C433        C  0.08640660  0.91892013  0.54207236     0.99400
O434        O  0.06447579  0.92885285  0.40741149    -0.61700
O435        O  0.37287248  0.89072879  0.46059490    -0.56600
O436        O  0.98754148  0.87224587  0.44250231    -0.93200
O437        O  0.42108143  0.85235029  0.46781016    -0.91700
O438        O  0.43827849  0.99548810  0.38803348    -0.92000
O439        O  0.02169507  0.54454806  0.36227130    -0.90800
C440        C  0.44550643  0.84353952  0.44725694     1.18300
H441        H  0.41756410  0.99857302  0.47794697     0.34200
H442        H  0.08049012  0.55475431  0.42192585     0.45100
H443        H  0.48458080  0.87877269  0.52646569     0.38600
H444        H  0.04799464  0.56555554  0.57677373     0.35100
H445        H  0.02680904  0.63403690  0.37584387     0.26800
H446        H  0.16542641  0.64139160  0.53567017     0.32800
H447        H  0.08131887  0.98383184  0.63091896     0.38700
H448        H  0.43657658  0.52243354  0.37180370     0.33200
H449        H  0.34814526  0.85947827  0.47533309     0.32000
H450        H  0.36938941  0.82114448  0.54369106     0.33700
H451        H  0.00065543  0.87664300  0.62951330     0.32700
H452        H  0.03018883  0.51863147  0.36420456     0.36700
H453        H  0.07980777  0.96022313  0.38836945     0.29400
H454        H  0.45326201  0.60252670  0.58915630     0.33600
H455        H  0.00047697  0.94717695  0.65577184     0.36500
H456        H  0.36404972  0.91632416  0.45950351     0.29100
H457        H  0.08710202  0.92162427  0.41515837     0.42000
H458        H  0.12205956  0.65098201  0.42656547     0.32000
H459        H  0.04846273  0.65210785  0.41418140     0.39700
H460        H  0.49179693  0.85520977  0.58959494     0.31500
H461        H  0.13039449  0.60216155  0.56880622     0.31600
H462        H  0.47396251  0.57615172  0.61365835     0.31800
C463        C  0.28539209  0.63081712  0.41140553     0.87300
C464        C  0.29356324  0.63577452  0.36725444    -0.52900
C465        C  0.33622293  0.65978279  0.35366306     0.10200
C466        C  0.36704768  0.67629099  0.38653308     0.21200
C467        C  0.30819138  0.60385199  0.42839885    -0.53700
C468        C  0.35101119  0.62839444  0.41576538     0.10300
C469        C  0.31339921  0.68640578  0.42147327    -0.53200
C470        C  0.35667390  0.70983466  0.40845004     0.10900
H471        H  0.26717989  0.62165838  0.34879862     0.15400
H472        H  0.40200384  0.69511119  0.37732219     0.01100
H473        H  0.29265694  0.57050465  0.45037912     0.15700
H474        H  0.30071064  0.70417376  0.43874601     0.15500
C475        C  0.23408695  0.87466324  0.58925196     0.87300
C476        C  0.21287462  0.90391701  0.57325063    -0.52900
C477        C  0.16994815  0.88004259  0.58503824     0.10200
C478        C  0.15217688  0.83031372  0.61252881     0.21200
C479        C  0.22478776  0.86696046  0.63347560    -0.53700
C480        C  0.18192057  0.84347425  0.64622440     0.10300
C481        C  0.20566548  0.82045956  0.57695851    -0.53200
C482        C  0.16230178  0.79764245  0.58919148     0.10900
H483        H  0.22954795  0.93846111  0.55246271     0.15400
H484        H  0.11713073  0.81210386  0.62108273     0.01100
H485        H  0.25052158  0.87866190  0.65258162     0.15700
H486        H  0.21823845  0.80313862  0.55903333     0.15500
Zr487      Zr  0.10018019  0.79145601  0.13508044     2.17500
O488        O  0.06252450  0.77811225  0.07607022    -0.50500
O489        O  0.03509260  0.75922947  0.17833590    -0.73700
O490        O  0.07099137  0.70494422  0.11750434    -0.80500
O491        O  0.12540280  0.92859491  0.12985622    -0.82300
O492        O  0.11383924  0.67497253  0.13845172    -0.77900
O493        O  0.07791535  0.85131388  0.11141593    -0.89500
O494        O  0.05319684  0.77115427  0.24047026    -0.75500
O495        O  0.11022013  0.74712077  0.19036879    -0.85000
O496        O  0.11790030  0.84410136  0.18569912    -0.84700
O497        O  0.15907716  0.78173779  0.11427166    -0.71400
O498        O  0.16418529  0.87108017  0.10987214    -0.83600
Zr499      Zr  0.25162838  0.86953433  0.19734241     2.26400
Zr500      Zr  0.17020515  0.73930876  0.17064375     2.06300
Zr501      Zr  0.18181335  0.92235655  0.16136848     2.10000
Zr502      Zr  0.12876445  0.80044403  0.24056950     1.78800
O503        O  0.22200630  0.99562081  0.11141123    -0.92400
O504        O  0.09340498  0.71603579  0.27850355    -0.40200
O505        O  0.19286310  0.87956557  0.21715558    -0.76800
O506        O  0.18774230  0.79005433  0.22278090    -0.95500
O507        O  0.23423473  0.81775974  0.14652300    -0.88800
O508        O  0.24156610  0.91417324  0.14219085    -0.91600
C509        C  0.02637406  0.75847761  0.21456982     1.02100
C510        C  0.09145656  0.89847082  0.11394672     1.15100
C511        C  0.08201035  0.67121514  0.12090188     1.05800
O512        O  0.13351895  0.66491352  0.22014867    -0.93800
O513        O  0.22612185  0.73116245  0.20079956    -0.89500
O514        O  0.27457367  0.80901146  0.21772903    -0.82700
C515        C  0.26081609  0.76171076  0.21553720     1.12500
O516        O  0.19534531  0.86736028  0.02948834    -0.95800
Zr517      Zr  0.22341890  0.86121167  0.09169247     1.88900
O518        O  0.31684856  0.90283192  0.15408752    -0.72400
O519        O  0.20069469  0.70390740  0.12912634    -0.51700
O520        O  0.22867297  0.80400059  0.05113707    -0.96400
O521        O  0.26919466  0.94489856  0.05337141    -0.53600
O522        O  0.29638645  0.87992403  0.09427627    -0.72900
C523        C  0.32426560  0.89719263  0.11911978     0.99400
O524        O  0.28968382  0.88946193  0.25604036    -0.61700
O525        O  0.15684010  0.96586960  0.20003700    -0.56600
O526        O  0.27848498  0.95323477  0.21901176    -0.93200
O527        O  0.23466976  0.98228377  0.19900368    -0.91700
O528        O  0.11649964  0.85370119  0.28011904    -0.92000
O529        O  0.15645506  0.80583048  0.30428062    -0.90800
C530        C  0.26624006  0.98585255  0.21697631     1.18300
H531        H  0.09562918  0.85139890  0.19184407     0.34200
H532        H  0.19338442  0.77389380  0.24525601     0.45100
H533        H  0.26735636  0.94728301  0.13484339     0.38600
H534        H  0.15157551  0.76149378  0.09305165     0.35100
H535        H  0.07706033  0.71819667  0.30086024     0.26800
H536        H  0.18320455  0.66652106  0.13692787     0.32800
H537        H  0.25549735  0.82609983  0.03363623     0.38700
H538        H  0.09158986  0.82938040  0.29905721     0.33200
H539        H  0.16020180  0.99487705  0.18195464     0.32000
H540        H  0.21387419  0.02031751  0.11803687     0.33700
H541        H  0.28424741  0.93886358  0.03217357     0.32700
H542        H  0.18821830  0.82835491  0.29883950     0.36700
H543        H  0.27296300  0.85839248  0.27521563     0.29400
H544        H  0.03359569  0.74705864  0.08306087     0.33600
H545        H  0.21722117  0.87204343  0.00907372     0.36500
H546        H  0.12518926  0.94229326  0.20536193     0.29100
H547        H  0.31742907  0.89156697  0.24962630     0.42000
H548        H  0.10231336  0.64983478  0.21702426     0.32000
H549        H  0.07079257  0.69331995  0.26249755     0.39700
H550        H  0.29244035  0.96529184  0.06976439     0.31500
H551        H  0.19287853  0.70927474  0.10268230     0.31600
H552        H  0.07774264  0.76831282  0.05790447     0.31800
C553        C  0.44894083  0.95458049  0.07964494     0.87300
C554        C  0.45717050  0.96463819  0.03523556    -0.52900
C555        C  0.00016095  0.99271292  0.02183915     0.10200
C556        C  0.03040736  0.50826660  0.05492930     0.21200
C557        C  0.47359487  0.92870463  0.09319281    -0.53700
C558        C  0.01634336  0.95648809  0.08030729     0.10300
C559        C  0.47211399  0.50704780  0.09241750    -0.53200
C560        C  0.01449527  0.53520881  0.07994082     0.10900
H561        H  0.43082415  0.95033507  0.01675692     0.15400
H562        H  0.06558222  0.53151091  0.04612331     0.01100
H563        H  0.45858691  0.89176928  0.11105553     0.15700
H564        H  0.45621725  0.52086640  0.11035105     0.15500
C565        C  0.40175016  0.70315268  0.25330837     0.87300
C566        C  0.37711394  0.64958614  0.24199927    -0.52900
C567        C  0.33472180  0.62324479  0.25508328     0.10200
C568        C  0.32044303  0.65331473  0.27811298     0.21200
C569        C  0.37803564  0.72942096  0.23784751    -0.53700
C570        C  0.33531400  0.70341603  0.25097748     0.10300
C571        C  0.39393940  0.69634593  0.29761945    -0.53200
C572        C  0.35106810  0.67007742  0.31128223     0.10900
H573        H  0.39201704  0.63352479  0.22534048     0.15400
H574        H  0.28533578  0.63165263  0.28724024     0.01100
H575        H  0.39358268  0.76536623  0.21861020     0.15700
H576        H  0.42050732  0.71150088  0.31582602     0.15500
C577        C  0.36710544  0.91159485  0.10633336    -0.12500
C578        C  0.40352638  0.92698852  0.09397286    -0.14000
C579        C  0.04046359  0.58572536  0.09026783    -0.12500
C580        C  0.05822596  0.62590201  0.10300192    -0.14000
C581        C  0.04481488  0.93759524  0.08914766    -0.12500
C582        C  0.06631202  0.91934395  0.09887419    -0.14000
C583        C  0.30756113  0.72283177  0.24058267    -0.12500
C584        C  0.28624901  0.74106816  0.23020384    -0.14000
C585        C  0.30752394  0.57161636  0.24728314    -0.11900
C586        C  0.28922499  0.53062844  0.23574971    -0.14000
C587        C  0.98345401  0.74352133  0.22723660    -0.12500
C588        C  0.44699334  0.72881438  0.23906465    -0.14000
C589        C  0.23802667  0.60214927  0.42433122    -0.12500
C590        C  0.19909604  0.57768750  0.43386427    -0.14000
C591        C  0.42121833  0.79749159  0.42884964    -0.12500
C592        C  0.39180198  0.75842624  0.41867689    -0.14000
C593        C  0.40755328  0.60907054  0.44704647    -0.12500
C594        C  0.38083261  0.61676138  0.43359110    -0.14000
C595        C  0.32036671  0.92658197  0.56816795    -0.12500
C596        C  0.28143828  0.90257906  0.57717661    -0.14000
C597        C  0.12720223  0.75024068  0.57763257    -0.12500
C598        C  0.09792934  0.71152009  0.56709529    -0.14000
C599        C  0.14168044  0.89436074  0.56748068    -0.12500
C600        C  0.11615020  0.90396557  0.55382882    -0.14000
C601        C  0.45214471  0.86912888  0.90276022    -0.12500
C602        C  0.47058463  0.91003218  0.91439933    -0.14000
C603        C  0.14855352  0.57853724  0.89496778    -0.12500
C604        C  0.11241205  0.56473099  0.90722587    -0.14000
C605        C  0.45394196  0.58278063  0.89754610    -0.12500
C606        C  0.47491456  0.56417827  0.90841174    -0.14000
C607        C  0.23015417  0.75531377  0.76579356    -0.12500
C608        C  0.20892673  0.77385504  0.75600074    -0.14000
C609        C  0.03161462  0.74974333  0.77058175    -0.12500
C610        C  0.06807214  0.76434920  0.75898561    -0.14000
C611        C  0.20576901  0.92234704  0.75807004    -0.12500
C612        C  0.22384502  0.96268590  0.77065352    -0.14000
Zr613      Zr  0.76523410  0.12838708  0.80220580     2.17500
O614        O  0.72819255  0.11475100  0.74285526    -0.50500
O615        O  0.69978845  0.09470356  0.84553066    -0.73700
O616        O  0.73640047  0.04178251  0.78493074    -0.80500
O617        O  0.78996606  0.26594335  0.79740711    -0.82300
O618        O  0.78047355  0.01313427  0.80489558    -0.77900
O619        O  0.74224481  0.18810263  0.77989863    -0.89500
O620        O  0.71842216  0.10701840  0.90748073    -0.75500
O621        O  0.77685851  0.08455427  0.85672713    -0.85000
O622        O  0.78269700  0.18049953  0.85307740    -0.84700
O623        O  0.82477098  0.12031218  0.78039529    -0.71400
O624        O  0.82843379  0.20885564  0.77710338    -0.83600
Zr625      Zr  0.91755892  0.20884173  0.86332073     2.26400
Zr626      Zr  0.83754530  0.07851009  0.83607300     2.06300
Zr627      Zr  0.84602231  0.25950165  0.82899221     2.10000
Zr628      Zr  0.79440375  0.13697554  0.90735642     1.78800
O629        O  0.88578406  0.33467497  0.78053098    -0.92400
O630        O  0.75885639  0.05139054  0.94331684    -0.40200
O631        O  0.85814588  0.21708212  0.88440423    -0.76800
O632        O  0.85428571  0.12851182  0.88881908    -0.95500
O633        O  0.90069231  0.15791796  0.81188103    -0.88800
O634        O  0.90637239  0.25299001  0.80862258    -0.91600
C635        C  0.69121310  0.09386448  0.88184506     1.02100
C636        C  0.75578704  0.23537243  0.78204412     1.15100
C637        C  0.74795436  0.00851545  0.78803295     1.05800
O638        O  0.80312026  0.00176594  0.88341095    -0.93800
O639        O  0.89399630  0.07148703  0.86646300    -0.89500
O640        O  0.93907983  0.14794642  0.88724428    -0.82700
C641        C  0.92695136  0.10142479  0.88355660     1.12500
O642        O  0.85806629  0.20768613  0.69683120    -0.95800
Zr643      Zr  0.88819781  0.20071586  0.75763887     1.88900
O644        O  0.98184008  0.24020611  0.81919213    -0.72400
O645        O  0.86939159  0.04715552  0.79197195    -0.51700
O646        O  0.89371218  0.14522981  0.71533677    -0.96400
O647        O  0.93247890  0.28502163  0.71978128    -0.53600
O648        O  0.96147751  0.22029186  0.75876901    -0.72900
C649        C  0.98920244  0.23581419  0.78385506     0.99400
O650        O  0.96396116  0.23729319  0.91639194    -0.61700
O651        O  0.81800783  0.29812056  0.86986077    -0.56600
O652        O  0.94193161  0.29166638  0.88620516    -0.93200
O653        O  0.89870474  0.32111436  0.86534614    -0.91700
O654        O  0.78196106  0.18912546  0.94805810    -0.92000
O655        O  0.82113361  0.13863233  0.97125320    -0.90800
C656        C  0.92992507  0.32453579  0.88373207     1.18300
H657        H  0.76013206  0.18718385  0.85948255     0.34200
H658        H  0.86000631  0.11233333  0.91120568     0.45100
H659        H  0.93186010  0.28636171  0.80123305     0.38600
H660        H  0.81719697  0.10009321  0.75915204     0.35100
H661        H  0.74232439  0.05261708  0.96598420     0.26800
H662        H  0.85459959  0.01000005  0.80058958     0.32800
H663        H  0.91965219  0.16825639  0.69703904     0.38700
H664        H  0.75616876  0.16446873  0.96600065     0.33200
H665        H  0.82215962  0.32858221  0.85321878     0.32000
H666        H  0.87516979  0.35731746  0.78664874     0.33700
H667        H  0.94640624  0.27947572  0.69736389     0.32700
H668        H  0.85212081  0.16575433  0.96703143     0.36700
H669        H  0.94930887  0.20923810  0.93825881     0.29400
H670        H  0.69899351  0.08419060  0.74993148     0.33600
H671        H  0.87897891  0.21190340  0.67562147     0.36500
H672        H  0.78627490  0.27434071  0.87348960     0.29100
H673        H  0.99041572  0.23746456  0.90798822     0.42000
H674        H  0.77217120  0.99105101  0.88594673     0.32000
H675        H  0.73638231  0.02942204  0.92687235     0.39700
H676        H  0.95665786  0.30496782  0.73548273     0.31500
H677        H  0.85864599  0.04999131  0.76645194     0.31600
H678        H  0.74310524  0.10406495  0.72515238     0.31800
C679        C  0.61373632  0.29167888  0.74571150     0.87300
C680        C  0.62271310  0.30221394  0.70139935    -0.52900
C681        C  0.66584875  0.33025619  0.68855913     0.10200
C682        C  0.69552581  0.34488272  0.72251003     0.21200
C683        C  0.63804389  0.26552195  0.75958716    -0.53700
C684        C  0.68100289  0.29327897  0.74729254     0.10300
C685        C  0.63698943  0.34378643  0.75970685    -0.53200
C686        C  0.67963234  0.37183721  0.74758596     0.10900
H687        H  0.59669597  0.28779018  0.68257116     0.15400
H688        H  0.73078019  0.36787992  0.71402775     0.01100
H689        H  0.62273202  0.22842757  0.77726085     0.15700
H690        H  0.62102196  0.35757790  0.77757708     0.15500
C691        C  0.56651395  0.04001435  0.92152582     0.87300
C692        C  0.54146369  0.48741815  0.90892150    -0.52900
C693        C  0.99897500  0.46189615  0.92182352     0.10200
C694        C  0.98559324  0.49229581  0.94545485     0.21200
C695        C  0.54371686  0.06785632  0.90682809    -0.53700
C696        C  0.00096171  0.04264110  0.91989661     0.10300
C697        C  0.55847150  0.03194493  0.96596362    -0.53200
C698        C  0.51552995  0.00634822  0.97945998     0.10900
H699        H  0.55582365  0.47092727  0.89206393     0.15400
H700        H  0.95044629  0.47158912  0.95427611     0.01100
H701        H  0.55984967  0.10411657  0.88797940     0.15700
H702        H  0.58482258  0.04487667  0.98443758     0.15500
Zr703      Zr  0.97437630  0.05067291  0.53595273     2.17500
O704        O  0.95063529  0.06865690  0.59563355    -0.50500
O705        O  0.94385265  0.09130801  0.49480317    -0.73700
O706        O  0.53130818  0.13528516  0.55539652    -0.80500
O707        O  0.87053723  0.41731429  0.53591210    -0.82300
O708        O  0.59769300  0.15409022  0.53078336    -0.77900
O709        O  0.89533555  0.49402728  0.55799073    -0.89500
O710        O  0.95150187  0.07881401  0.43203877    -0.75500
O711        O  0.52655301  0.09130281  0.48046995    -0.85000
O712        O  0.94512272  0.50275951  0.48372522    -0.84700
O713        O  0.53663323  0.04687293  0.55422849    -0.71400
O714        O  0.95920109  0.46613983  0.55742287    -0.83600
Zr715      Zr  0.54412580  0.45417003  0.46551720     2.26400
Zr716      Zr  0.58757807  0.08558572  0.49741307     2.06300
Zr717      Zr  0.93100439  0.41948190  0.50394341     2.10000
Zr718      Zr  0.99666220  0.04271198  0.42823099     1.78800
O719        O  0.89916869  0.34524566  0.55359814    -0.92400
O720        O  0.54328052  0.12971080  0.39574294    -0.40200
O721        O  0.98231756  0.45847941  0.44773728    -0.76800
O722        O  0.55930286  0.03926238  0.44346748    -0.95500
O723        O  0.57327942  0.00218358  0.51785429    -0.88800
O724        O  0.99178245  0.41373410  0.52090010    -0.91600
C725        C  0.93674652  0.09321944  0.45871148     1.02100
C726        C  0.86483617  0.44818120  0.55338336     1.15100
C727        C  0.57332452  0.16398699  0.55031015     1.05800
O728        O  0.62312961  0.16048813  0.44821650    -0.93800
O729        O  0.64890991  0.08901963  0.46611612    -0.89500
O730        O  0.62422292  0.01238756  0.44397915    -0.82700
C731        C  0.65472273  0.05821600  0.44864193     1.12500
O732        O  0.48214015  0.44906877  0.63629823    -0.95800
Zr733      Zr  0.52110254  0.46175030  0.57362308     1.88900
O734        O  0.57406772  0.41377996  0.50755351    -0.72400
O735        O  0.64720771  0.10922855  0.53823203    -0.51700
O736        O  0.57591185  0.00922914  0.61678771    -0.96400
O737        O  0.98522290  0.37415703  0.60643123    -0.53600
O738        O  0.57362142  0.43655849  0.56805645    -0.72900
C739        C  0.58547496  0.41801496  0.54242441     0.99400
O740        O  0.56250829  0.42785284  0.40760624    -0.61700
O741        O  0.87123582  0.38973492  0.46267467    -0.56600
O742        O  0.48678159  0.37221115  0.44320494    -0.93200
O743        O  0.92037068  0.35285076  0.46822920    -0.91700
O744        O  0.93838031  0.49587958  0.38882452    -0.92000
O745        O  0.52165581  0.04511006  0.36168196    -0.90800
C746        C  0.94475387  0.34385217  0.44778988     1.18300
H747        H  0.91784201  0.49933330  0.47809208     0.34200
H748        H  0.58033391  0.05490656  0.42099118     0.45100
H749        H  0.98380975  0.37858783  0.52706905     0.38600
H750        H  0.54845159  0.06570661  0.57589273     0.35100
H751        H  0.52659945  0.13333866  0.37482832     0.26800
H752        H  0.66683088  0.14654825  0.53129550     0.32800
H753        H  0.58003986  0.48419680  0.63232360     0.38700
H754        H  0.93449650  0.02158665  0.37277705     0.33200
H755        H  0.84612357  0.36039237  0.47872376     0.32000
H756        H  0.87111771  0.32077781  0.54436263     0.33700
H757        H  0.50055927  0.37633671  0.63014343     0.32700
H758        H  0.53150086  0.02042700  0.36357525     0.36700
H759        H  0.57676519  0.45889972  0.38819706     0.29400
H760        H  0.95342833  0.10225372  0.58886697     0.33600
H761        H  0.50069688  0.44831748  0.65647552     0.36500
H762        H  0.86398437  0.41671208  0.45970101     0.29100
H763        H  0.58585701  0.42158625  0.41459219     0.42000
H764        H  0.61155426  0.18208388  0.45467482     0.32000
H765        H  0.54341665  0.15193032  0.41457229     0.39700
H766        H  0.99358563  0.35550355  0.59003119     0.31500
H767        H  0.63455691  0.10493190  0.56502408     0.31600
H768        H  0.97325347  0.07487787  0.61349577     0.31800
C769        C  0.78564893  0.13147672  0.41152207     0.87300
C770        C  0.79380124  0.13609439  0.36740842    -0.52900
C771        C  0.83646769  0.16021408  0.35380625     0.10200
C772        C  0.86729160  0.17713508  0.38666468     0.21200
C773        C  0.80857408  0.10480927  0.42874733    -0.53700
C774        C  0.85138366  0.12942069  0.41609284     0.10300
C775        C  0.81340057  0.18711856  0.42135212    -0.53200
C776        C  0.85664395  0.21062715  0.40836695     0.10900
H777        H  0.76738583  0.12165775  0.34899811     0.15400
H778        H  0.90226505  0.19610459  0.37744951     0.01100
H779        H  0.79307802  0.07147776  0.45074258     0.15700
H780        H  0.80060001  0.20484710  0.43854320     0.15500
C781        C  0.73367841  0.37477447  0.58904865     0.87300
C782        C  0.71199279  0.40345015  0.57306115    -0.52900
C783        C  0.66910595  0.37922285  0.58505498     0.10200
C784        C  0.65179190  0.32973345  0.61271622     0.21200
C785        C  0.72459154  0.36728529  0.63331288    -0.53700
C786        C  0.68174398  0.34341341  0.64626493     0.10300
C787        C  0.70545515  0.32033510  0.57699061    -0.53200
C788        C  0.66207923  0.29715177  0.58945260     0.10900
H789        H  0.72833927  0.43789628  0.55215321     0.15400
H790        H  0.61674958  0.31126392  0.62139730     0.01100
H791        H  0.75044387  0.37939791  0.65231594     0.15700
H792        H  0.71814088  0.30312626  0.55906836     0.15500
Zr793      Zr  0.60027722  0.29175329  0.13456726     2.17500
O794        O  0.56208241  0.27875459  0.07589960    -0.50500
O795        O  0.53503759  0.25866100  0.17792447    -0.73700
O796        O  0.57153727  0.20549987  0.11645539    -0.80500
O797        O  0.62606522  0.42953690  0.12968541    -0.82300
O798        O  0.61458155  0.17568935  0.13722312    -0.77900
O799        O  0.57794699  0.35202753  0.11194903    -0.89500
O800        O  0.55308418  0.27052441  0.24007292    -0.75500
O801        O  0.61055610  0.24714421  0.18948505    -0.85000
O802        O  0.61776382  0.34372857  0.18554223    -0.84700
O803        O  0.65936325  0.28237439  0.11358283    -0.71400
O804        O  0.66432066  0.37160320  0.10970853    -0.83600
Zr805      Zr  0.75179187  0.36955461  0.19714702     2.26400
Zr806      Zr  0.67072514  0.23971434  0.16972253     2.06300
Zr807      Zr  0.68169841  0.42222349  0.16164136     2.10000
Zr808      Zr  0.62866880  0.29969655  0.24010886     1.78800
O809        O  0.72059934  0.49692856  0.11269472    -0.92400
O810        O  0.59197683  0.21466537  0.27719168    -0.40200
O811        O  0.69282461  0.37909010  0.21721087    -0.76800
O812        O  0.68791607  0.28981034  0.22225228    -0.95500
O813        O  0.73469628  0.31838352  0.14593225    -0.88800
O814        O  0.74161682  0.41444732  0.14218864    -0.91600
C815        C  0.52624839  0.25778077  0.21417645     1.02100
C816        C  0.59183498  0.39936710  0.11414803     1.15100
C817        C  0.58267908  0.17185869  0.11976923     1.05800
O818        O  0.63315173  0.16456871  0.21848866    -0.93800
O819        O  0.72643991  0.23129919  0.20020970    -0.89500
O820        O  0.77418951  0.30866094  0.21830888    -0.82700
C821        C  0.76072894  0.26153481  0.21562797     1.12500
O822        O  0.69653161  0.37035954  0.02911607    -0.95800
Zr823      Zr  0.72367261  0.36200273  0.09135751     1.88900
O824        O  0.81693585  0.40234088  0.15387957    -0.72400
O825        O  0.70180592  0.20488625  0.12826679    -0.51700
O826        O  0.72775356  0.30433907  0.05048832    -0.96400
O827        O  0.77039331  0.44548867  0.05307348    -0.53600
O828        O  0.79647740  0.38020245  0.09391938    -0.72900
C829        C  0.82432002  0.39696721  0.11882224     0.99400
O830        O  0.79168774  0.39123405  0.25473363    -0.61700
O831        O  0.65534984  0.46255772  0.20242945    -0.56600
O832        O  0.77800936  0.45291898  0.21936881    -0.93200
O833        O  0.73543039  0.48313055  0.19799494    -0.91700
O834        O  0.61813024  0.35447633  0.27930198    -0.92000
O835        O  0.65506948  0.30186101  0.30417835    -0.90800
C836        C  0.76646043  0.48618177  0.21656845     1.18300
H837        H  0.59542029  0.35086877  0.19177122     0.34200
H838        H  0.69345568  0.27344678  0.24466726     0.45100
H839        H  0.76732497  0.44765223  0.13488759     0.38600
H840        H  0.65192822  0.26232847  0.09224864     0.35100
H841        H  0.57461146  0.21633783  0.29892649     0.26800
H842        H  0.68527164  0.16764481  0.13685612     0.32800
H843        H  0.75628835  0.32507162  0.03519167     0.38700
H844        H  0.59102316  0.33116427  0.29614728     0.33200
H845        H  0.66014929  0.49327677  0.18568316     0.32000
H846        H  0.72215556  0.52518266  0.12535008     0.33700
H847        H  0.78575813  0.43923076  0.03229648     0.32700
H848        H  0.68686016  0.32474103  0.29936556     0.36700
H849        H  0.77517697  0.36086595  0.27456973     0.29400
H850        H  0.53312317  0.24782599  0.08311874     0.33600
H851        H  0.71763159  0.37304230  0.00879687     0.36500
H852        H  0.62352762  0.43949694  0.20600931     0.29100
H853        H  0.81905750  0.39261215  0.24796315     0.42000
H854        H  0.60199474  0.15107326  0.21616564     0.32000
H855        H  0.57024619  0.19230080  0.26037760     0.39700
H856        H  0.79329139  0.46584428  0.06976962     0.31500
H857        H  0.69293684  0.20878992  0.10201023     0.31600
H858        H  0.57694715  0.26873337  0.05754678     0.31800
C859        C  0.94884904  0.45454559  0.07903280     0.87300
C860        C  0.95722212  0.46458570  0.03462453    -0.52900
C861        C  0.50029448  0.49297837  0.02124477     0.10200
C862        C  0.53044617  0.00771891  0.05527621     0.21200
C863        C  0.97375042  0.42906909  0.09276232    -0.53700
C864        C  0.51668948  0.45715614  0.07986923     0.10300
C865        C  0.97244299  0.00711005  0.09310341    -0.53200
C866        C  0.51491351  0.03494371  0.08036760     0.10900
H867        H  0.93097934  0.45001578  0.01603203     0.15400
H868        H  0.56559761  0.03071182  0.04632513     0.01100
H869        H  0.95888621  0.39219214  0.11069070     0.15700
H870        H  0.95675160  0.02124661  0.11095003     0.15500
C871        C  0.90179074  0.20290132  0.25333388     0.87300
C872        C  0.87709257  0.14920880  0.24228679    -0.52900
C873        C  0.83472710  0.12294757  0.25545442     0.10200
C874        C  0.82051956  0.15319116  0.27834297     0.21200
C875        C  0.87797707  0.22903992  0.23777653    -0.53700
C876        C  0.83527701  0.20312722  0.25103643     0.10300
C877        C  0.89410760  0.19641518  0.29766198    -0.53200
C878        C  0.85125527  0.17021884  0.31142143     0.10900
H879        H  0.89192993  0.13304037  0.22566988     0.15400
H880        H  0.78542959  0.13156823  0.28753206     0.01100
H881        H  0.89347935  0.26489765  0.21844016     0.15700
H882        H  0.92072177  0.21170102  0.31581674     0.15500
C883        C  0.86707313  0.41114521  0.10594539    -0.12500
C884        C  0.90343680  0.42661232  0.09336841    -0.14000
C885        C  0.54101048  0.08580100  0.08998388    -0.12500
C886        C  0.55883245  0.12637487  0.10210984    -0.14000
C887        C  0.54540650  0.43869929  0.08902430    -0.12500
C888        C  0.56683953  0.42044355  0.09900957    -0.14000
C889        C  0.80746391  0.22256395  0.24074469    -0.12500
C890        C  0.78609028  0.24078556  0.23043345    -0.14000
C891        C  0.80744072  0.07134075  0.24765336    -0.11900
C892        C  0.78909384  0.03041561  0.23602964    -0.14000
C893        C  0.48325719  0.24269133  0.22686581    -0.12500
C894        C  0.94703482  0.22848158  0.23891250    -0.14000
C895        C  0.73838364  0.10288131  0.42445273    -0.12500
C896        C  0.69949027  0.07861036  0.43390005    -0.14000
C897        C  0.92058010  0.29803094  0.42926525    -0.12500
C898        C  0.89146854  0.25910796  0.41878287    -0.14000
C899        C  0.90748790  0.10907912  0.44702931    -0.12500
C900        C  0.88113028  0.11751719  0.43370563    -0.14000
C901        C  0.82004020  0.42781996  0.56786851    -0.12500
C902        C  0.78106135  0.40329719  0.57678975    -0.14000
C903        C  0.62697587  0.24947506  0.57816961    -0.12500
C904        C  0.59758751  0.21066460  0.56779970    -0.14000
C905        C  0.64052341  0.39306109  0.56761787    -0.12500
C906        C  0.61496795  0.40266690  0.55407611    -0.14000
C907        C  0.95279108  0.36938990  0.90243084    -0.12500
C908        C  0.97118621  0.41043547  0.91388396    -0.14000
C909        C  0.64808332  0.07848415  0.89492755    -0.12500
C910        C  0.61186123  0.06463223  0.90712336    -0.14000
C911        C  0.95232848  0.08107483  0.89913754    -0.12500
C912        C  0.97367843  0.06290197  0.90969481    -0.14000
C913        C  0.73054388  0.25599595  0.76690866    -0.12500
C914        C  0.70926726  0.27434620  0.75675965    -0.14000
C915        C  0.53171596  0.24924362  0.77110683    -0.12500
C916        C  0.56816400  0.26408975  0.75929199    -0.14000
C917        C  0.70576033  0.42220745  0.75829863    -0.12500
C918        C  0.72389230  0.46256870  0.77082694    -0.14000
Zr919      Zr  0.76525452  0.62832494  0.80184895     2.17500
O920        O  0.72808908  0.61452228  0.74254381    -0.50500
O921        O  0.69999379  0.59473811  0.84533825    -0.73700
O922        O  0.73638151  0.54169171  0.78483695    -0.80500
O923        O  0.78939124  0.76530680  0.79672381    -0.82300
O924        O  0.78079976  0.51347276  0.80460956    -0.77900
O925        O  0.74207319  0.68755581  0.77882800    -0.89500
O926        O  0.71881904  0.60707759  0.90724694    -0.75500
O927        O  0.77719469  0.58462453  0.85626291    -0.85000
O928        O  0.78248552  0.68024442  0.85285263    -0.84700
O929        O  0.82502179  0.62072700  0.77994416    -0.71400
O930        O  0.82815144  0.70906237  0.77689685    -0.83600
Zr931      Zr  0.91773448  0.70955535  0.86270565     2.26400
Zr932      Zr  0.83806758  0.57903825  0.83553396     2.06300
Zr933      Zr  0.84553354  0.75955092  0.82886406     2.10000
Zr934      Zr  0.79469691  0.63690740  0.90697651     1.78800
O935        O  0.88480012  0.83539283  0.78095705    -0.92400
O936        O  0.75882691  0.55150245  0.94328738    -0.40200
O937        O  0.85809361  0.71722695  0.88401450    -0.76800
O938        O  0.85480835  0.62899258  0.88823960    -0.95500
O939        O  0.90081113  0.65869896  0.81123936    -0.88800
O940        O  0.90614362  0.75367683  0.80821630    -0.91600
C941        C  0.69156558  0.59392465  0.88167270     1.02100
C942        C  0.75544622  0.73475528  0.78104802     1.15100
C943        C  0.74807881  0.50857326  0.78795493     1.05800
O944        O  0.80370259  0.50297809  0.88354782    -0.93800
O945        O  0.89514809  0.57282462  0.86556283    -0.89500
O946        O  0.94063624  0.64963996  0.88564442    -0.82700
C947        C  0.92844748  0.60303806  0.88218348     1.12500
O948        O  0.85665628  0.70667435  0.69671611    -0.95800
Zr949      Zr  0.88809602  0.70150356  0.75714923     1.88900
O950        O  0.98197785  0.74183058  0.81837033    -0.72400
O951        O  0.86961821  0.54700608  0.79179129    -0.51700
O952        O  0.89486603  0.64812102  0.71349161    -0.96400
O953        O  0.93166457  0.78665073  0.72036255    -0.53600
O954        O  0.96119224  0.72035383  0.75833197    -0.72900
C955        C  0.98910733  0.73656234  0.78323077     0.99400
O956        O  0.96266651  0.73691781  0.91683709    -0.61700
O957        O  0.81671048  0.79725916  0.86984820    -0.56600
O958        O  0.94201827  0.79206851  0.88588940    -0.93200
O959        O  0.89802508  0.82073473  0.86576406    -0.91700
O960        O  0.78329438  0.68954948  0.94795150    -0.92000
O961        O  0.82137371  0.63724167  0.97075244    -0.90800
C962        C  0.92951555  0.82445437  0.88388997     1.18300
H963        H  0.75983985  0.68678912  0.85927724     0.34200
H964        H  0.86080263  0.61297688  0.91053957     0.45100
H965        H  0.93148811  0.78717668  0.80083140     0.38600
H966        H  0.81752194  0.60051944  0.75869688     0.35100
H967        H  0.74178377  0.55275050  0.96552645     0.26800
H968        H  0.85428183  0.50976761  0.80022274     0.32800
H969        H  0.92026425  0.67210104  0.69491271     0.38700
H970        H  0.75709162  0.66517393  0.96554794     0.33200
H971        H  0.81929696  0.82666919  0.85290666     0.32000
H972        H  0.87877368  0.86046587  0.79071723     0.33700
H973        H  0.94410095  0.78161783  0.69662812     0.32700
H974        H  0.85091135  0.66783548  0.96774149     0.36700
H975        H  0.94752053  0.70841053  0.93833059     0.29400
H976        H  0.69916347  0.58344205  0.74947702     0.33600
H977        H  0.87849185  0.71405405  0.67524579     0.36500
H978        H  0.78520899  0.77235952  0.87440450     0.29100
H979        H  0.98938567  0.73738544  0.90894250     0.42000
H980        H  0.77267053  0.49192788  0.88572600     0.32000
H981        H  0.73679240  0.52935414  0.92659952     0.39700
H982        H  0.95691659  0.80556260  0.73525344     0.31500
H983        H  0.85938333  0.55042214  0.76611630     0.31600
H984        H  0.74349105  0.60465008  0.72465255     0.31800
C985        C  0.61365731  0.79177716  0.74554116     0.87300
C986        C  0.62272144  0.80232678  0.70122906    -0.52900
C987        C  0.66587643  0.83030121  0.68847865     0.10200
C988        C  0.69547250  0.84483690  0.72245870     0.21200
C989        C  0.63786854  0.76549956  0.75945521    -0.53700
C990        C  0.68083307  0.79315379  0.74714015     0.10300
C991        C  0.63695788  0.84387431  0.75955937    -0.53200
C992        C  0.67961547  0.87186331  0.74748883     0.10900
H993        H  0.59676927  0.78795393  0.68232537     0.15400
H994        H  0.73073716  0.86777824  0.71404908     0.01100
H995        H  0.62245331  0.72830164  0.77698637     0.15700
H996        H  0.62099663  0.85772894  0.77736859     0.15500
C997        C  0.56710640  0.54036444  0.92122476     0.87300
C998        C  0.54083996  0.98697809  0.90935032    -0.52900
C999        C  0.99844800  0.96143477  0.92236680     0.10200
C1000       C  0.98510495  0.99168380  0.94615003     0.21200
C1001       C  0.54463741  0.56847074  0.90629703    -0.53700
C1002       C  0.00182097  0.54339445  0.91914413     0.10300
C1003       C  0.55878149  0.53219626  0.96561248    -0.53200
C1004       C  0.51579733  0.50675478  0.97887372     0.10900
H1005       H  0.55512460  0.97054817  0.89233041     0.15400
H1006       H  0.94998941  0.97080142  0.95512997     0.01100
H1007       H  0.56103122  0.60476705  0.88748780     0.15700
H1008       H  0.58499396  0.54489966  0.98423291     0.15500
Zr1009     Zr  0.97452077  0.55119245  0.53630550     2.17500
O1010       O  0.95108470  0.56921926  0.59611875    -0.50500
O1011       O  0.94383255  0.59157091  0.49509499    -0.73700
O1012       O  0.53163579  0.63600160  0.55509793    -0.80500
O1013       O  0.87066327  0.91628942  0.53547269    -0.82300
O1014       O  0.59796730  0.65453534  0.53049804    -0.77900
O1015       O  0.89546266  0.99273935  0.55806087    -0.89500
O1016       O  0.95261770  0.58011079  0.43225850    -0.75500
O1017       O  0.52709409  0.59137622  0.48106912    -0.85000
O1018       O  0.94492172  0.00218005  0.48336758    -0.84700
O1019       O  0.53626086  0.54667296  0.55511897    -0.71400
O1020       O  0.95923643  0.96563772  0.55682753    -0.83600
Zr1021     Zr  0.54471359  0.95457980  0.46492572     2.26400
Zr1022     Zr  0.58768015  0.58490277  0.49864978     2.06300
Zr1023     Zr  0.93130132  0.91904700  0.50321463     2.10000
Zr1024     Zr  0.99711817  0.54307620  0.42876466     1.78800
O1025       O  0.89822148  0.84376177  0.55193145    -0.92400
O1026       O  0.54461257  0.62899755  0.39482098    -0.40200
O1027       O  0.98266037  0.95839659  0.44710035    -0.76800
O1028       O  0.55936636  0.53915966  0.44437861    -0.95500
O1029       O  0.57299999  0.50130072  0.51863313    -0.88800
O1030       O  0.99232485  0.91385455  0.52034741    -0.91600
C1031       C  0.93720016  0.59385083  0.45889708     1.02100
C1032       C  0.86501328  0.94693697  0.55334216     1.15100
C1033       C  0.57364076  0.66465949  0.54986164     1.05800
O1034       O  0.62733186  0.66254853  0.45250830    -0.93800
O1035       O  0.64869139  0.58760007  0.46710018    -0.89500
O1036       O  0.62357371  0.51152716  0.44388912    -0.82700
C1037       C  0.65428285  0.55710406  0.44894029     1.12500
O1038       O  0.48427188  0.95300382  0.63569457    -0.95800
Zr1039     Zr  0.52157768  0.96209523  0.57297808     1.88900
O1040       O  0.57555690  0.91522283  0.50693677    -0.72400
O1041       O  0.64389416  0.60458992  0.54289503    -0.51700
O1042       O  0.57523997  0.50966282  0.61734533    -0.96400
O1043       O  0.98466409  0.87476820  0.60640639    -0.53600
O1044       O  0.57379457  0.93645406  0.56779784    -0.72900
C1045       C  0.58641019  0.91884529  0.54200534     0.99400
O1046       O  0.56450380  0.92904813  0.40729539    -0.61700
O1047       O  0.87302345  0.89092502  0.46034541    -0.56600
O1048       O  0.48756896  0.87234484  0.44242806    -0.93200
O1049       O  0.92104419  0.85226988  0.46783630    -0.91700
O1050       O  0.93821439  0.99540677  0.38803864    -0.92000
O1051       O  0.52178223  0.54464351  0.36230051    -0.90800
C1052       C  0.94547700  0.84343244  0.44732040     1.18300
H1053       H  0.91754502  0.99858940  0.47791474     0.34200
H1054       H  0.58044464  0.55471493  0.42194523     0.45100
H1055       H  0.98453339  0.87877239  0.52650214     0.38600
H1056       H  0.54795573  0.56555975  0.57678541     0.35100
H1057       H  0.52673245  0.63405173  0.37589620     0.26800
H1058       H  0.66538277  0.64140888  0.53567381     0.32800
H1059       H  0.58141414  0.98384271  0.63088216     0.38700
H1060       H  0.93646031  0.52235750  0.37191567     0.33200
H1061       H  0.84822809  0.85968483  0.47502330     0.32000
H1062       H  0.86920209  0.82109408  0.54346309     0.33700
H1063       H  0.50087173  0.87657028  0.62939018     0.32700
H1064       H  0.53003005  0.51850949  0.36419684     0.36700
H1065       H  0.57988698  0.96047785  0.38831454     0.29400
H1066       H  0.95330937  0.60248349  0.58920751     0.33600
H1067       H  0.50059721  0.94694451  0.65578755     0.36500
H1068       H  0.86425363  0.91656873  0.45921629     0.29100
H1069       H  0.58708786  0.92173242  0.41501364     0.42000
H1070       H  0.62193267  0.65088779  0.42653139     0.32000
H1071       H  0.54835878  0.65210977  0.41424618     0.39700
H1072       H  0.99169134  0.85524631  0.58972760     0.31500
H1073       H  0.63034352  0.60222264  0.56882167     0.31600
H1074       H  0.97412155  0.57620281  0.61365342     0.31800
C1075       C  0.78534622  0.63075263  0.41134090     0.87300
C1076       C  0.79356202  0.63573566  0.36718622    -0.52900
C1077       C  0.83623247  0.65970979  0.35363087     0.10200
C1078       C  0.86701811  0.67617169  0.38653730     0.21200
C1079       C  0.80810054  0.60373844  0.42835431    -0.53700
C1080       C  0.85092868  0.62825185  0.41575579     0.10300
C1081       C  0.81337122  0.68632609  0.42143708    -0.53200
C1082       C  0.85665506  0.70972813  0.40845537     0.10900
H1083       H  0.76720645  0.62167068  0.34869790     0.15400
H1084       H  0.90197879  0.69496349  0.37735950     0.01100
H1085       H  0.79253069  0.57038144  0.45032500     0.15700
H1086       H  0.80068396  0.70409923  0.43870556     0.15500
C1087       C  0.73407359  0.87461079  0.58927083     0.87300
C1088       C  0.71284176  0.90382919  0.57324429    -0.52900
C1089       C  0.66991750  0.87995089  0.58503767     0.10200
C1090       C  0.65216737  0.83025352  0.61256349     0.21200
C1091       C  0.72479048  0.86695705  0.63349567    -0.53700
C1092       C  0.68192363  0.84345716  0.64625277     0.10300
C1093       C  0.70565658  0.82038213  0.57701488    -0.53200
C1094       C  0.66229370  0.79756335  0.58925515     0.10900
H1095       H  0.72949972  0.93834749  0.55242917     0.15400
H1096       H  0.61712181  0.81204105  0.62111897     0.01100
H1097       H  0.75053067  0.87868808  0.65259721     0.15700
H1098       H  0.71822843  0.80305319  0.55909744     0.15500
Zr1099     Zr  0.60015297  0.79145289  0.13513710     2.17500
O1100       O  0.56256572  0.77836616  0.07609738    -0.50500
O1101       O  0.53502618  0.75902997  0.17837328    -0.73700
O1102       O  0.57104833  0.70506643  0.11733194    -0.80500
O1103       O  0.62558911  0.92869739  0.12972340    -0.82300
O1104       O  0.61368790  0.67490890  0.13853015    -0.77900
O1105       O  0.57791204  0.85132774  0.11152794    -0.89500
O1106       O  0.55311722  0.77117612  0.24048861    -0.75500
O1107       O  0.61013968  0.74707160  0.19042758    -0.85000
O1108       O  0.61786752  0.84409036  0.18576583    -0.84700
O1109       O  0.65900920  0.78167140  0.11433505    -0.71400
O1110       O  0.66417183  0.87106633  0.10996507    -0.83600
Zr1111     Zr  0.75157071  0.86944331  0.19743073     2.26400
Zr1112     Zr  0.67010370  0.73922298  0.17071373     2.06300
Zr1113     Zr  0.68182437  0.92233214  0.16145926     2.10000
Zr1114     Zr  0.62867626  0.80038112  0.24064004     1.78800
O1115       O  0.72232075  0.99562625  0.11158219    -0.92400
O1116       O  0.59297040  0.71596998  0.27860912    -0.40200
O1117       O  0.69281615  0.87949535  0.21726500    -0.76800
O1118       O  0.68765479  0.78996195  0.22286753    -0.95500
O1119       O  0.73416476  0.81767135  0.14661025    -0.88800
O1120       O  0.74154250  0.91409281  0.14227247    -0.91600
C1121       C  0.52628637  0.75833965  0.21458947     1.02100
C1122       C  0.59156992  0.89853982  0.11391779     1.15100
C1123       C  0.58198751  0.67126907  0.12081712     1.05800
O1124       O  0.63346886  0.66495588  0.22033840    -0.93800
O1125       O  0.72608302  0.73104663  0.20069023    -0.89500
O1126       O  0.77438993  0.80880421  0.21785462    -0.82700
C1127       C  0.76071105  0.76155130  0.21553120     1.12500
O1128       O  0.69530233  0.86761405  0.02963660    -0.95800
Zr1129     Zr  0.72335116  0.86112100  0.09177718     1.88900
O1130       O  0.81677003  0.90283792  0.15410214    -0.72400
O1131       O  0.70042831  0.70364434  0.12919728    -0.51700
O1132       O  0.72833724  0.80361785  0.05136522    -0.96400
O1133       O  0.76917780  0.94462470  0.05323528    -0.53600
O1134       O  0.79632827  0.87989906  0.09429600    -0.72900
C1135       C  0.82420771  0.89722983  0.11912929     0.99400
O1136       O  0.79008867  0.88973758  0.25585885    -0.61700
O1137       O  0.65675635  0.96597001  0.19987537    -0.56600
O1138       O  0.77830657  0.95305479  0.21925207    -0.93200
O1139       O  0.73457637  0.98219983  0.19919094    -0.91700
O1140       O  0.61666133  0.85385735  0.28014352    -0.92000
O1141       O  0.65624733  0.80536700  0.30438616    -0.90800
C1142       C  0.76610446  0.98571336  0.21720304     1.18300
H1143       H  0.59559598  0.85139486  0.19189552     0.34200
H1144       H  0.69328597  0.77378608  0.24533974     0.45100
H1145       H  0.76734573  0.94718991  0.13491438     0.38600
H1146       H  0.65151564  0.76144464  0.09310617     0.35100
H1147       H  0.57655744  0.71820944  0.30086936     0.26800
H1148       H  0.68300075  0.66628239  0.13713065     0.32800
H1149       H  0.75514633  0.82559614  0.03382168     0.38700
H1150       H  0.59180220  0.82961234  0.29915531     0.33200
H1151       H  0.66025171  0.99500863  0.18174051     0.32000
H1152       H  0.71501636  0.02084497  0.11867477     0.33700
H1153       H  0.78443928  0.93850953  0.03227383     0.32700
H1154       H  0.68799281  0.82816317  0.29902563     0.36700
H1155       H  0.77333818  0.85886238  0.27520685     0.29400
H1156       H  0.53364962  0.74726911  0.08301767     0.33600
H1157       H  0.71688030  0.87161459  0.00920663     0.36500
H1158       H  0.62508496  0.94245597  0.20508045     0.29100
H1159       H  0.81768516  0.89151846  0.24937931     0.42000
H1160       H  0.60228843  0.64945044  0.21689922     0.32000
H1161       H  0.57042101  0.69329843  0.26253457     0.39700
H1162       H  0.79224805  0.96522015  0.06970449     0.31500
H1163       H  0.69245737  0.70882800  0.10278307     0.31600
H1164       H  0.57783356  0.76869290  0.05787485     0.31800
C1165       C  0.94891262  0.95472392  0.07963072     0.87300
C1166       C  0.95715819  0.96471294  0.03522321    -0.52900
C1167       C  0.50016899  0.99267166  0.02184050     0.10200
C1168       C  0.53048891  0.50833558  0.05478721     0.21200
C1169       C  0.97354058  0.92883782  0.09323950    -0.53700
C1170       C  0.51639346  0.95640340  0.08024859     0.10300
C1171       C  0.97200056  0.50692760  0.09254431    -0.53200
C1172       C  0.51459816  0.53532158  0.07977564     0.10900
H1173       H  0.93081742  0.95039901  0.01673905     0.15400
H1174       H  0.56565765  0.53157713  0.04595738     0.01100
H1175       H  0.95850359  0.89191109  0.11111821     0.15700
H1176       H  0.95608633  0.52071760  0.11048619     0.15500
C1177       C  0.90190884  0.70345191  0.25332255     0.87300
C1178       C  0.87738459  0.64996478  0.24185982    -0.52900
C1179       C  0.83497621  0.62349457  0.25487624     0.10200
C1180       C  0.82056832  0.65335959  0.27802754     0.21200
C1181       C  0.87813574  0.72968174  0.23793707    -0.53700
C1182       C  0.83539061  0.70352910  0.25100599     0.10300
C1183       C  0.89402414  0.69643890  0.29763634    -0.53200
C1184       C  0.85113470  0.67005464  0.31125176     0.10900
H1185       H  0.89236774  0.63406111  0.22511671     0.15400
H1186       H  0.78545016  0.63159079  0.28711902     0.01100
H1187       H  0.89364778  0.76567606  0.21876236     0.15700
H1188       H  0.92056020  0.71159472  0.31587768     0.15500
C1189       C  0.86707096  0.91174002  0.10632344    -0.12500
C1190       C  0.90349465  0.92716609  0.09394882    -0.14000
C1191       C  0.54056587  0.58586702  0.09005433    -0.12500
C1192       C  0.55828098  0.62602543  0.10281835    -0.14000
C1193       C  0.54491638  0.93760137  0.08908136    -0.12500
C1194       C  0.56645513  0.91942084  0.09881641    -0.14000
C1195       C  0.80754325  0.72279350  0.24057764    -0.12500
C1196       C  0.78616408  0.74092896  0.23017906    -0.14000
C1197       C  0.80786055  0.57196100  0.24683654    -0.11900
C1198       C  0.78957427  0.53101567  0.23523329    -0.14000
C1199       C  0.48331650  0.74321911  0.22723034    -0.12500
C1200       C  0.94716366  0.72921233  0.23910743    -0.14000
C1201       C  0.73797277  0.60211724  0.42425407    -0.12500
C1202       C  0.69904649  0.57766878  0.43382240    -0.14000
C1203       C  0.92119563  0.79735448  0.42893203    -0.12500
C1204       C  0.89178951  0.75829383  0.41873328    -0.14000
C1205       C  0.90746976  0.60893615  0.44705627    -0.12500
C1206       C  0.88072327  0.61658654  0.43360642    -0.14000
C1207       C  0.82034223  0.92656760  0.56812529    -0.12500
C1208       C  0.78142039  0.90254123  0.57717085    -0.14000
C1209       C  0.62718712  0.75016777  0.57769548    -0.12500
C1210       C  0.59789963  0.71146991  0.56714475    -0.14000
C1211       C  0.64163593  0.89422112  0.56744063    -0.12500
C1212       C  0.61612064  0.90383319  0.55375915    -0.14000
C1213       C  0.95216301  0.86909133  0.90283426    -0.12500
C1214       C  0.97059873  0.91001598  0.91444023    -0.14000
C1215       C  0.64857550  0.57864115  0.89486562    -0.12500
C1216       C  0.61242845  0.56485155  0.90709388    -0.14000
C1217       C  0.95394488  0.58273480  0.89769051    -0.12500
C1218       C  0.97492898  0.56413531  0.90852950    -0.14000
C1219       C  0.73019132  0.75530530  0.76581901    -0.12500
C1220       C  0.70893356  0.77381609  0.75603929    -0.14000
C1221       C  0.53158538  0.74975217  0.77053515    -0.12500
C1222       C  0.56805026  0.76432052  0.75898090    -0.14000
C1223       C  0.70576171  0.92231305  0.75809871    -0.12500
C1224       C  0.72385100  0.96266947  0.77065932    -0.14000
loop_ 
_geom_bond_atom_site_label_1 
_geom_bond_atom_site_label_2 
_geom_bond_distance 
_geom_bond_site_symmetry_2 
_ccdc_geom_bond_type 
Zr1           O2   2.440       .  S
Zr1           O3   2.431       .  S
Zr1           O4   2.461       .  S
Zr1           O7   2.452       .  S
Zr1           O9   2.388       .  S
Zr1          O10   2.381       .  S
Zr1          O11   2.404       .  S
Zr1          O12   2.402       .  S
O2           H58   0.990       .  S
O2           H66   0.990       .  S
O3           C23   1.283       .  A
O4           C25   1.288       .  A
O5          Zr15   2.418       .  S
O5           C24   1.280       .  A
O6          Zr14   2.401       .  S
O6           C25   1.277       .  A
O7           C24   1.287       .  A
O8          Zr16   2.409       .  S
O8           C23   1.278       .  A
O9          Zr14   2.395       .  S
O9          Zr16   2.379       .  S
O10         Zr15   2.373       .  S
O10         Zr16   2.377       .  S
O10          H45   0.965       .  S
O11         Zr14   2.403       .  S
O11         Zr31   2.387       .  S
O11          H48   0.965       .  S
O12         Zr15   2.382       .  S
O12         Zr31   2.389       .  S
Zr13         O38   2.439       .  S
Zr13         O32   2.426       .  S
Zr13         O40   2.459       .  S
Zr13         O28   2.460       .  S
Zr13         O19   2.395       .  S
Zr13         O20   2.404       .  S
Zr13         O21   2.376       .  S
Zr13         O22   2.390       .  S
Zr14         O33   2.438       .  S
Zr14         O26   2.435       .  S
Zr14         O27   2.421       .  S
Zr14         O20   2.397       .  S
Zr14         O21   2.377       .  S
Zr15         O17   2.435       .  S
Zr15         O39   2.439       .  S
Zr15         O41   2.389       .  S
Zr15         O19   2.395       .  S
Zr15         O22   2.388       .  S
Zr16         O42   2.436       .  S
Zr16         O43   2.436       .  S
Zr16         O18   2.437       .  S
Zr16         O19   2.388       .  S
Zr16         O20   2.391       .  S
O17          H54   0.990       .  S
O18          H49   0.990       .  S
O18          H63   0.990       .  S
O20          H46   0.966       .  S
O21         Zr31   2.378       .  S
O22         Zr31   2.385       .  S
O22          H47   0.966       .  S
C23         C297   1.423       .  S
C24         C301   1.440       .  S
C25         C612   1.432   1_545  S
O26          H62   0.990   1_545  S
O27          C29   1.281       .  A
O28          C29   1.287       .  A
C29         C299   1.443       .  S
O30         Zr31   2.441       .  S
O30          H59   0.990       .  S
Zr31         O34   2.438       .  S
Zr31         O35   2.443       .  S
Zr31         O36   2.401       .  S
O32          C37   1.281       .  A
O33          H50   0.990       .  S
O33          H65   0.990       .  S
O34          H51   0.990       .  S
O35          H55   0.990       .  S
O35          H64   0.989       .  S
O36          C37   1.276       .  A
C37         C915   1.418       .  S
O38          H57   0.990       .  S
O38          H61   0.990       .  S
O39          H53   0.990       .  S
O39          H60   0.990       .  S
O40          C44   1.289       .  A
O41          C44   1.275       .  A
O42          H52   0.990       .  S
O43          H56   0.990       .  S
C44         C295   1.430       .  S
C67          C68   1.529       .  S
C67          C73   1.520       .  S
C67          C71   1.527       .  S
C67         C304   1.449       .  S
C68          H75   1.082       .  S
C68          C69   1.371       .  D
C69          C70   1.555       .  S
C69         C174   1.497       .  S
C70          C74   1.544       .  S
C70          C72   1.546       .  S
C70          H76   1.107       .  S
C71          H77   1.087       .  S
C71          C72   1.362       .  D
C72         C302   1.446       .  S
C73          H78   1.088       .  S
C73          C74   1.351       .  D
C74         C305   1.437       .  S
C79          C85   1.531       .  S
C79          C83   1.531       .  S
C79         C386   1.520   1_545  S
C79         C298   1.455       .  S
C80         C385   1.519       .  S
C80          H87   1.088       .  S
C80         C693   1.352   1_455  D
C81          C82   1.543       .  S
C81         C692   1.352       .  D
C81         C296   1.436       .  S
C82        C1004   1.555       .  S
C82         C390   1.547       .  S
C82          H88   1.106       .  S
C83          H89   1.087       .  S
C83         C696   1.364       .  D
C84         C388   1.545   1_545  S
C84         C695   1.364       .  D
C84         C300   1.449       .  S
C85          H90   1.083       .  S
C85          C86   1.372       .  D
C86        C1000   1.553   1_445  S
C86         C555   1.496   1_546  S
Zr91         O92   2.438       .  S
Zr91         O93   2.447       .  S
Zr91        O706   2.529       .  S
Zr91        O403   2.509   1_545  S
Zr91        O711   2.394       .  S
Zr91        O406   2.388       .  S
Zr91        O713   2.413       .  S
Zr91        O408   2.413   1_545  S
O92         H148   0.990       .  S
O92         H156   0.990       .  S
O93         C113   1.286       .  A
O94        Zr703   2.529   1_455  S
O94         C115   1.303       .  A
O95        Zr105   2.392       .  S
O95         C114   1.274       .  A
O96        Zr104   2.375       .  S
O96         C115   1.271       .  A
O97        Zr397   2.512       .  S
O97         C114   1.300       .  A
O98        Zr106   2.412       .  S
O98         C113   1.279       .  A
O99        Zr104   2.389       .  S
O99        Zr703   2.394   1_455  S
O99        Zr718   2.380   1_455  S
O100       Zr105   2.370       .  S
O100       Zr397   2.386       .  S
O100       Zr412   2.376       .  S
O100        H135   0.965       .  S
O101       Zr104   2.404       .  S
O101       Zr703   2.413   1_455  S
O101       Zr427   2.393   1_545  S
O101        H138   0.966       .  S
O102       Zr105   2.381       .  S
O102       Zr397   2.412       .  S
O102       Zr733   2.393       .  S
Zr103       O128   2.436       .  S
Zr103       O122   2.442       .  S
Zr103       O130   2.524   1_455  S
Zr103       O424   2.519       .  S
Zr103       O721   2.402   1_455  S
Zr103       O416   2.412       .  S
Zr103       O417   2.380       .  S
Zr103       O724   2.395   1_455  S
Zr104       O123   2.438       .  S
Zr104       O116   2.437       .  S
Zr104       O117   2.392       .  S
Zr104       O110   2.390       .  S
Zr104       O111   2.373       .  S
Zr105       O107   2.435       .  S
Zr105       O129   2.441       .  S
Zr105       O131   2.370       .  S
Zr105       O109   2.394       .  S
Zr105       O112   2.381       .  S
Zr106       O438   2.436   1_545  S
Zr106       O745   2.436       .  S
Zr106       O720   2.439       .  S
Zr106       O711   2.380       .  S
Zr106       O406   2.376       .  S
Zr106       O415   2.394   1_545  S
Zr106       O722   2.394       .  S
O107        H144   0.990       .  S
O108       Zr718   2.439   1_455  S
O108        H139   0.990       .  S
O108        H153   0.990       .  S
O109       Zr715   2.403       .  S
O109       Zr412   2.393       .  S
O110       Zr409   2.413   1_545  S
O110       Zr718   2.394   1_455  S
O110        H136   0.967       .  S
O111       Zr409   2.380   1_545  S
O111       Zr427   2.375   1_545  S
O112       Zr715   2.395       .  S
O112       Zr733   2.384       .  S
O112        H137   0.965       .  S
C113        C287   1.429       .  S
C114        C289   1.456       .  S
C115        C292   1.453       .  S
O116        H152   0.990       .  S
O117        C119   1.275       .  A
O118       Zr409   2.518   1_545  S
O118        C119   1.300       .  A
C119        C284   1.458       .  S
O120       Zr121   2.441   1_655  S
O120        H149   0.990   1_655  S
Zr121       O430   2.439       .  S
Zr121       O737   2.445   1_455  S
Zr121       O126   2.404       .  S
Zr121       O407   2.395       .  S
Zr121       O714   2.393   1_455  S
Zr121       O417   2.374       .  S
Zr121       O724   2.383   1_455  S
O122        C127   1.285       .  A
O123        H140   0.990       .  S
O123        H155   0.990       .  S
O124       Zr427   2.439   1_545  S
O124        H447   0.990   1_545  S
O125       Zr733   2.444       .  S
O125        H154   0.990       .  S
O125        H757   0.990       .  S
O126        C127   1.277       .  A
C127        C294   1.425       .  S
O128        H147   0.990       .  S
O128        H151   0.990       .  S
O129        H143   0.990       .  S
O129        H150   0.990       .  S
O130        C746   1.303       .  A
O131        C134   1.271       .  A
O132       Zr412   2.436       .  S
O132        H448   0.990       .  S
O133       Zr718   2.436   1_455  S
O133        H146   0.990       .  S
C134        O742   1.303       .  A
C134        C285   1.453       .  S
H141        O430   0.990       .  S
H142        O438   0.990   1_545  S
H145        O737   0.990   1_455  S
C157        C158   1.528       .  S
C157        C163   1.558       .  S
C157        C161   1.534       .  S
C157        C283   1.495       .  S
C158        H165   1.082       .  S
C158        C159   1.367       .  D
C159        C160   1.550       .  S
C159        C266   1.496       .  S
C160        C164   1.526       .  S
C160        C162   1.528       .  S
C160        H166   1.107       .  S
C161        H167   1.087       .  S
C161        C162   1.363       .  D
C162        C288   1.437       .  S
C163        H168   1.085       .  S
C163        C164   1.381       .  D
C164        C286   1.465       .  S
C169        C170   1.531       .  S
C169        C175   1.560       .  S
C169        C173   1.530       .  S
C169        C290   1.493       .  S
C170        H177   1.087       .  S
C170        C171   1.360       .  D
C171        C172   1.528       .  S
C171        C293   1.434       .  S
C172        C176   1.525       .  S
C172        C174   1.550       .  S
C172        H178   1.107       .  S
C173        H179   1.083       .  S
C173        C174   1.368       .  D
C175        H180   1.085       .  S
C175        C176   1.382       .  D
C176        C291   1.465       .  S
Zr181       O182   2.440       .  S
Zr181       O183   2.429       .  S
Zr181       O184   2.463       .  S
Zr181       O187   2.450       .  S
Zr181       O189   2.387       .  S
Zr181       O190   2.382       .  S
Zr181       O191   2.405       .  S
Zr181       O192   2.404       .  S
O182        H238   0.990       .  S
O182        H246   0.990       .  S
O183        C203   1.282       .  A
O184        C205   1.289       .  A
O185       Zr195   2.425       .  S
O185        C204   1.281       .  A
O186       Zr194   2.394       .  S
O186        C205   1.275       .  A
O187        C204   1.287       .  A
O188       Zr196   2.400       .  S
O188        C203   1.276       .  A
O189       Zr194   2.393       .  S
O189       Zr196   2.381       .  S
O190       Zr195   2.375       .  S
O190       Zr196   2.380       .  S
O190        H225   0.966       .  S
O191       Zr194   2.404       .  S
O191       Zr211   2.386       .  S
O191        H228   0.965       .  S
O192       Zr195   2.382       .  S
O192       Zr211   2.392       .  S
Zr193       O218   2.439       .  S
Zr193       O212   2.427       .  S
Zr193       O220   2.454       .  S
Zr193       O208   2.458       .  S
Zr193       O199   2.394       .  S
Zr193       O200   2.401       .  S
Zr193       O201   2.374       .  S
Zr193       O202   2.392       .  S
Zr194       O213   2.438       .  S
Zr194       O206   2.436       .  S
Zr194       O207   2.419       .  S
Zr194       O200   2.391       .  S
Zr194       O201   2.376       .  S
Zr195       O197   2.436       .  S
Zr195       O219   2.439       .  S
Zr195       O221   2.396       .  S
Zr195       O199   2.395       .  S
Zr195       O202   2.387       .  S
Zr196       O222   2.435       .  S
Zr196       O223   2.436       .  S
Zr196       O198   2.438       .  S
Zr196       O199   2.383       .  S
Zr196       O200   2.390       .  S
O197        H234   0.990       .  S
O198        H229   0.990       .  S
O198        H243   0.990       .  S
O200        H226   0.966       .  S
O201       Zr211   2.375       .  S
O202       Zr211   2.384       .  S
O202        H227   0.966       .  S
C203        C281   1.418   1_455  S
C204        C276   1.442       .  S
C205        C274   1.428       .  S
O206        H242   0.990       .  S
O207        C209   1.280       .  A
O208        C209   1.287       .  A
C209        C278   1.442       .  S
O210       Zr211   2.441       .  S
O210        H239   0.990       .  S
Zr211       O214   2.438       .  S
Zr211       O215   2.443       .  S
Zr211       O216   2.402       .  S
O212        C217   1.282       .  A
O213        H230   0.990       .  S
O213        H245   0.990       .  S
O214        H231   0.990       .  S
O215        H235   0.990       .  S
O215        H244   0.989       .  S
O216        C217   1.276       .  A
C217        C271   1.419       .  S
O218        H237   0.991       .  S
O218        H241   0.990       .  S
O219        H233   0.990       .  S
O219        H240   0.990       .  S
O220        C224   1.288       .  A
O221        C224   1.276       .  A
O222        H232   0.990       .  S
O223        H236   0.990       .  S
C224        C586   1.430       .  S
C247        C248   1.531       .  S
C247        C251   1.528       .  S
C247        C559   1.519       .  S
C247        C272   1.451       .  S
C248        H255   1.082       .  S
C248        C861   1.372       .  D
C249        C556   1.555       .  S
C249        C860   1.372   1_455  D
C249        C392   1.496   1_554  S
C250        C254   1.543       .  S
C250        C555   1.554   1_545  S
C250        C558   1.546   1_545  S
C250        H256   1.107       .  S
C251        H257   1.087       .  S
C251        C864   1.362       .  D
C252        C556   1.545       .  S
C252        C863   1.362   1_455  D
C252        C275   1.447       .  S
C253        C553   1.519   1_545  S
C253        H258   1.088       .  S
C253        C866   1.351       .  D
C254        C865   1.351   1_455  D
C254        C273   1.435       .  S
C259        C260   1.519       .  S
C259        C265   1.529       .  S
C259        C263   1.529       .  S
C259        C282   1.450       .  S
C260        H267   1.088       .  S
C260        C261   1.351       .  D
C261        C262   1.543       .  S
C261        C279   1.436       .  S
C262        C266   1.555       .  S
C262        C264   1.546       .  S
C262        H268   1.106       .  S
C263        H269   1.087       .  S
C263        C264   1.363       .  D
C264        C277   1.448       .  S
C265        H270   1.082       .  S
C265        C266   1.371       .  D
C271        C272   1.197       .  T
C273        C274   1.203       .  T
C275        C276   1.210       .  T
C277        C278   1.210       .  T
C279        C280   1.203       .  T
C280        C530   1.430   1_545  S
C281        C894   1.196       .  T
C282        C893   1.196       .  T
C283        C284   1.221       .  T
C285        C286   1.220       .  T
C287        C288   1.203       .  T
C289        C290   1.221       .  T
C291        C292   1.220       .  T
C293        C294   1.201       .  T
C295        C296   1.204       .  T
C297        C298   1.199       .  T
C299        C300   1.211       .  T
C301        C302   1.209       .  T
C303        C649   1.418   1_455  S
C303        C304   1.196       .  T
C305        C306   1.204       .  T
C306        C331   1.431       .  S
Zr307       O308   2.440       .  S
Zr307       O309   2.430       .  S
Zr307       O310   2.459       .  S
Zr307       O313   2.449       .  S
Zr307       O315   2.388       .  S
Zr307       O316   2.381       .  S
Zr307       O317   2.404       .  S
Zr307       O318   2.401       .  S
O308        H364   0.990       .  S
O308        H372   0.990       .  S
O309        C329   1.283       .  A
O310        C331   1.288       .  A
O311       Zr321   2.420       .  S
O311        C330   1.280       .  A
O312       Zr320   2.402       .  S
O312        C331   1.277       .  A
O313        C330   1.287       .  A
O314       Zr322   2.406       .  S
O314        C329   1.277       .  A
O315       Zr320   2.394       .  S
O315       Zr322   2.379       .  S
O316       Zr321   2.373       .  S
O316       Zr322   2.379       .  S
O316        H351   0.965       .  S
O317       Zr320   2.403       .  S
O317       Zr337   2.388       .  S
O317        H354   0.965       .  S
O318       Zr321   2.382       .  S
O318       Zr337   2.388       .  S
Zr319       O344   2.439       .  S
Zr319       O338   2.425       .  S
Zr319       O346   2.456       .  S
Zr319       O334   2.460       .  S
Zr319       O325   2.395       .  S
Zr319       O326   2.403       .  S
Zr319       O327   2.375       .  S
Zr319       O328   2.391       .  S
Zr320       O339   2.437       .  S
Zr320       O332   2.435       .  S
Zr320       O333   2.424       .  S
Zr320       O326   2.394       .  S
Zr320       O327   2.376       .  S
Zr321       O323   2.435       .  S
Zr321       O345   2.439       .  S
Zr321       O347   2.393       .  S
Zr321       O325   2.394       .  S
Zr321       O328   2.389       .  S
Zr322       O348   2.436       .  S
Zr322       O349   2.436       .  S
Zr322       O324   2.437       .  S
Zr322       O325   2.386       .  S
Zr322       O326   2.391       .  S
O323        H360   0.990       .  S
O324        H355   0.990       .  S
O324        H369   0.990       .  S
O326        H352   0.966       .  S
O327       Zr337   2.378       .  S
O328       Zr337   2.386       .  S
O328        H353   0.966       .  S
C329        C603   1.420       .  S
C330        C607   1.439       .  S
O332        H368   0.990       .  S
O333        C335   1.281       .  A
O334        C335   1.287       .  A
C335        C605   1.445       .  S
O336       Zr337   2.442       .  S
O336        H365   0.990       .  S
Zr337       O340   2.438       .  S
Zr337       O341   2.444       .  S
Zr337       O342   2.402       .  S
O338        C343   1.281       .  A
O339        H356   0.990       .  S
O339        H371   0.990       .  S
O340        H357   0.990       .  S
O341        H361   0.990       .  S
O341        H370   0.989       .  S
O342        C343   1.277       .  A
C343       C1221   1.418       .  S
O344        H363   0.990       .  S
O344        H367   0.990       .  S
O345        H359   0.990       .  S
O345        H366   0.990       .  S
O346        C350   1.288       .  A
O347        C350   1.275       .  A
O348        H358   0.990       .  S
O349        H362   0.990       .  S
C350        C601   1.430       .  S
C373        C374   1.529       .  S
C373        C379   1.520       .  S
C373        C377   1.527       .  S
C373        C610   1.449       .  S
C374        H381   1.082       .  S
C374        C375   1.371       .  D
C375        C376   1.554       .  S
C375        C480   1.496       .  S
C376        C380   1.544       .  S
C376        C378   1.545       .  S
C376        H382   1.107       .  S
C377        H383   1.087       .  S
C377        C378   1.362       .  D
C378        C608   1.445       .  S
C379        H384   1.088       .  S
C379        C380   1.351       .  D
C380        C611   1.438       .  S
C385        C391   1.531       .  S
C385        C389   1.530       .  S
C385        C604   1.453       .  S
C386        H393   1.088       .  S
C386        C999   1.352   1_455  D
C387        C388   1.541       .  S
C387        C998   1.352       .  D
C387        C602   1.436       .  S
C388        C698   1.553   1_565  S
C388        H394   1.106       .  S
C389        H395   1.087       .  S
C389       C1002   1.363       .  D
C390       C1001   1.363       .  D
C390        C606   1.451       .  S
C391        H396   1.083       .  S
C391        C392   1.372       .  D
C392        C694   1.555   1_455  S
Zr397       O398   2.438       .  S
Zr397       O399   2.446       .  S
Zr397      O1012   2.527       .  S
Zr397      O1017   2.395       .  S
Zr397      O1019   2.414       .  S
O398        H454   0.990       .  S
O398        H462   0.990       .  S
O399        C419   1.286       .  A
O400      Zr1009   2.527   1_455  S
O400        C421   1.303       .  A
O401       Zr411   2.394       .  S
O401        C420   1.275       .  A
O402       Zr410   2.373       .  S
O402        C421   1.271       .  A
O403        C420   1.300       .  A
O404       Zr412   2.413       .  S
O404        C419   1.279       .  A
O405      Zr1009   2.395   1_455  S
O405       Zr410   2.392       .  S
O405      Zr1024   2.379   1_455  S
O406       Zr411   2.370   1_545  S
O406        H441   0.965   1_545  S
O407      Zr1009   2.414   1_455  S
O407       Zr410   2.403       .  S
O407        H444   0.966       .  S
O408       Zr411   2.382       .  S
O408      Zr1039   2.391       .  S
Zr409       O434   2.436       .  S
Zr409       O428   2.444       .  S
Zr409       O436   2.530   1_455  S
Zr409      O1027   2.403   1_455  S
Zr409      O1030   2.394   1_455  S
Zr410       O429   2.439       .  S
Zr410       O422   2.435       .  S
Zr410       O423   2.396       .  S
Zr410       O416   2.392       .  S
Zr410       O417   2.371       .  S
Zr411       O413   2.435       .  S
Zr411       O435   2.441       .  S
Zr411       O437   2.370       .  S
Zr411       O415   2.393       .  S
Zr411       O418   2.382       .  S
Zr412      O1051   2.436       .  S
Zr412      O1026   2.438       .  S
Zr412      O1017   2.379       .  S
Zr412      O1028   2.392       .  S
O413        H450   0.990       .  S
O414      Zr1024   2.438   1_455  S
O414        H445   0.990       .  S
O414        H459   0.990       .  S
O415      Zr1021   2.403       .  S
O416      Zr1024   2.392   1_455  S
O416        H442   0.967       .  S
O418      Zr1021   2.394       .  S
O418      Zr1039   2.384       .  S
O418        H443   0.965       .  S
C419        C593   1.430       .  S
C420        C595   1.455       .  S
C421        C598   1.452       .  S
O422        H458   0.990       .  S
O423        C425   1.275       .  A
O424        C425   1.301       .  A
C425        C590   1.460       .  S
O426       Zr427   2.441   1_655  S
O426        H455   0.990   1_655  S
Zr427      O1043   2.444   1_455  S
Zr427       O432   2.403       .  S
Zr427      O1020   2.391   1_455  S
Zr427      O1030   2.384   1_455  S
O428        C433   1.286       .  A
O429        H446   0.990       .  S
O429        H461   0.990       .  S
O431      Zr1039   2.444       .  S
O431       H1063   0.990       .  S
O431        H460   0.990       .  S
O432        C433   1.277       .  A
C433        C600   1.427       .  S
O434        H453   0.990       .  S
O434        H457   0.990       .  S
O435        H449   0.990       .  S
O435        H456   0.990       .  S
O436       C1052   1.304       .  A
O437        C440   1.270       .  A
O439      Zr1024   2.436   1_455  S
O439        H452   0.990       .  S
C440       O1048   1.304       .  A
C440        C591   1.456       .  S
H451       O1043   0.990   1_455  S
C463        C464   1.528       .  S
C463        C469   1.561       .  S
C463        C467   1.535       .  S
C463        C589   1.497       .  S
C464        H471   1.083       .  S
C464        C465   1.367       .  D
C465        C466   1.550       .  S
C465        C572   1.496       .  S
C466        C470   1.525       .  S
C466        C468   1.528       .  S
C466        H472   1.107       .  S
C467        H473   1.087       .  S
C467        C468   1.363       .  D
C468        C594   1.438       .  S
C469        H474   1.085       .  S
C469        C470   1.383       .  D
C470        C592   1.468       .  S
C475        C476   1.532       .  S
C475        C481   1.558       .  S
C475        C479   1.529       .  S
C475        C596   1.492       .  S
C476        H483   1.087       .  S
C476        C477   1.361       .  D
C477        C478   1.528       .  S
C477        C599   1.435       .  S
C478        C482   1.526       .  S
C478        C480   1.550       .  S
C478        H484   1.107       .  S
C479        H485   1.083       .  S
C479        C480   1.368       .  D
C481        H486   1.086       .  S
C481        C482   1.381       .  D
C482        C597   1.464       .  S
Zr487       O488   2.440       .  S
Zr487       O489   2.427       .  S
Zr487       O490   2.461       .  S
Zr487       O493   2.448       .  S
Zr487       O495   2.389       .  S
Zr487       O496   2.383       .  S
Zr487       O497   2.402       .  S
Zr487       O498   2.402       .  S
O488        H544   0.990       .  S
O488        H552   0.990       .  S
O489        C509   1.282       .  A
O490        C511   1.288       .  A
O491       Zr501   2.426       .  S
O491        C510   1.281       .  A
O492       Zr500   2.396       .  S
O492        C511   1.275       .  A
O493        C510   1.287       .  A
O494       Zr502   2.400       .  S
O494        C509   1.276       .  A
O495       Zr500   2.394       .  S
O495       Zr502   2.382       .  S
O496       Zr501   2.373       .  S
O496       Zr502   2.380       .  S
O496        H531   0.966       .  S
O497       Zr500   2.403       .  S
O497       Zr517   2.385       .  S
O497        H534   0.965       .  S
O498       Zr501   2.382       .  S
O498       Zr517   2.392       .  S
Zr499       O524   2.439       .  S
Zr499       O518   2.426       .  S
Zr499       O526   2.451       .  S
Zr499       O514   2.457       .  S
Zr499       O505   2.394       .  S
Zr499       O506   2.400       .  S
Zr499       O507   2.373       .  S
Zr499       O508   2.391       .  S
Zr500       O519   2.438       .  S
Zr500       O512   2.436       .  S
Zr500       O513   2.417       .  S
Zr500       O506   2.391       .  S
Zr500       O507   2.376       .  S
Zr501       O503   2.434       .  S
Zr501       O525   2.439       .  S
Zr501       O527   2.399       .  S
Zr501       O505   2.392       .  S
Zr501       O508   2.387       .  S
Zr502       O528   2.436       .  S
Zr502       O529   2.436       .  S
Zr502       O504   2.438       .  S
Zr502       O505   2.382       .  S
Zr502       O506   2.390       .  S
O503        H540   0.990   1_565  S
O504        H535   0.990       .  S
O504        H549   0.990       .  S
O506        H532   0.966       .  S
O507       Zr517   2.375       .  S
O508       Zr517   2.385       .  S
O508        H533   0.966       .  S
C509        C587   1.416   1_455  S
C510        C582   1.441       .  S
C511        C580   1.429       .  S
O512        H548   0.990       .  S
O513        C515   1.280       .  A
O514        C515   1.287       .  A
C515        C584   1.441       .  S
O516       Zr517   2.441       .  S
O516        H545   0.990       .  S
Zr517       O520   2.438       .  S
Zr517       O521   2.443       .  S
Zr517       O522   2.403       .  S
O518        C523   1.282       .  A
O519        H536   0.990       .  S
O519        H551   0.990       .  S
O520        H537   0.990       .  S
O521        H541   0.990       .  S
O521        H550   0.989       .  S
O522        C523   1.276       .  A
C523        C577   1.419       .  S
O524        H543   0.991       .  S
O524        H547   0.990       .  S
O525        H539   0.990       .  S
O525        H546   0.990       .  S
O526        C530   1.288       .  A
O527        C530   1.277       .  A
O528        H538   0.990       .  S
O529        H542   0.990       .  S
C553        C554   1.530       .  S
C553        C557   1.528       .  S
C553        C578   1.451       .  S
C554        H561   1.082       .  S
C554       C1167   1.372       .  D
C555       C1166   1.372   1_455  D
C556        C560   1.543       .  S
C556        H562   1.107       .  S
C557        H563   1.087       .  S
C557       C1170   1.362       .  D
C558       C1169   1.362   1_455  D
C558        C581   1.447       .  S
C559        H564   1.088       .  S
C559       C1172   1.351       .  D
C560       C1171   1.351   1_455  D
C560        C579   1.435       .  S
C565        C566   1.519       .  S
C565        C571   1.528       .  S
C565        C569   1.528       .  S
C565        C588   1.448       .  S
C566        H573   1.088       .  S
C566        C567   1.352       .  D
C567        C568   1.543       .  S
C567        C585   1.436       .  S
C568        C572   1.555       .  S
C568        C570   1.546       .  S
C568        H574   1.106       .  S
C569        H575   1.087       .  S
C569        C570   1.362       .  D
C570        C583   1.447       .  S
C571        H576   1.082       .  S
C571        C572   1.371       .  D
C577        C578   1.197       .  T
C579        C580   1.203       .  T
C581        C582   1.210       .  T
C583        C584   1.209       .  T
C585        C586   1.203       .  T
C587       C1200   1.195       .  T
C588       C1199   1.195       .  T
C589        C590   1.223       .  T
C591        C592   1.222       .  T
C593        C594   1.203       .  T
C595        C596   1.220       .  T
C597        C598   1.219       .  T
C599        C600   1.202       .  T
C601        C602   1.203       .  T
C603        C604   1.198       .  T
C605        C606   1.212       .  T
C607        C608   1.208       .  T
C609        C955   1.418   1_455  S
C609        C610   1.196       .  T
C611        C612   1.204       .  T
Zr613       O614   2.440       .  S
Zr613       O615   2.431       .  S
Zr613       O616   2.461       .  S
Zr613       O619   2.451       .  S
Zr613       O621   2.387       .  S
Zr613       O622   2.380       .  S
Zr613       O623   2.404       .  S
Zr613       O624   2.402       .  S
O614        H670   0.990       .  S
O614        H678   0.991       .  S
O615        C635   1.283       .  A
O616        C637   1.288       .  A
O617       Zr627   2.419       .  S
O617        C636   1.280       .  A
O618       Zr626   2.402       .  S
O618        C637   1.277       .  A
O619        C636   1.287       .  A
O620       Zr628   2.409       .  S
O620        C635   1.278       .  A
O621       Zr626   2.395       .  S
O621       Zr628   2.379       .  S
O622       Zr627   2.373       .  S
O622       Zr628   2.377       .  S
O622        H657   0.965       .  S
O623       Zr626   2.402       .  S
O623       Zr643   2.387       .  S
O623        H660   0.965       .  S
O624       Zr627   2.382       .  S
O624       Zr643   2.390       .  S
Zr625       O650   2.439       .  S
Zr625       O644   2.426       .  S
Zr625       O652   2.459       .  S
Zr625       O640   2.460       .  S
Zr625       O631   2.395       .  S
Zr625       O632   2.404       .  S
Zr625       O633   2.376       .  S
Zr625       O634   2.390       .  S
Zr626       O645   2.438       .  S
Zr626       O638   2.435       .  S
Zr626       O639   2.421       .  S
Zr626       O632   2.397       .  S
Zr626       O633   2.378       .  S
Zr627       O629   2.435       .  S
Zr627       O651   2.439       .  S
Zr627       O653   2.390       .  S
Zr627       O631   2.395       .  S
Zr627       O634   2.389       .  S
Zr628       O654   2.436       .  S
Zr628       O655   2.436       .  S
Zr628       O630   2.437       .  S
Zr628       O631   2.388       .  S
Zr628       O632   2.391       .  S
O629        H666   0.990       .  S
O630        H661   0.990       .  S
O630        H675   0.990       .  S
O632        H658   0.966       .  S
O633       Zr643   2.377       .  S
O634       Zr643   2.385       .  S
O634        H659   0.966       .  S
C635        C909   1.423       .  S
C636        C913   1.440       .  S
C637       C1224   1.432   1_545  S
O638        H674   0.990   1_545  S
O639        C641   1.281       .  A
O640        C641   1.287       .  A
C641        C911   1.443       .  S
O642       Zr643   2.441       .  S
O642        H671   0.990       .  S
Zr643       O646   2.439       .  S
Zr643       O647   2.443       .  S
Zr643       O648   2.401       .  S
O644        C649   1.281       .  A
O645        H662   0.990       .  S
O645        H677   0.990       .  S
O646        H663   0.990       .  S
O647        H667   0.990       .  S
O647        H676   0.990       .  S
O648        C649   1.276       .  A
O650        H669   0.990       .  S
O650        H673   0.990       .  S
O651        H665   0.990       .  S
O651        H672   0.990       .  S
O652        C656   1.289       .  A
O653        C656   1.275       .  A
O654        H664   0.990       .  S
O655        H668   0.990       .  S
C656        C907   1.430       .  S
C679        C680   1.529       .  S
C679        C685   1.520       .  S
C679        C683   1.527       .  S
C679        C916   1.450       .  S
C680        H687   1.082       .  S
C680        C681   1.371       .  D
C681        C682   1.555       .  S
C681        C786   1.497       .  S
C682        C686   1.544       .  S
C682        C684   1.546       .  S
C682        H688   1.107       .  S
C683        H689   1.087       .  S
C683        C684   1.362       .  D
C684        C914   1.446       .  S
C685        H690   1.088       .  S
C685        C686   1.351       .  D
C686        C917   1.437       .  S
C691        C998   1.520   1_545  S
C691        C697   1.531       .  S
C691        C695   1.531       .  S
C691        C910   1.455       .  S
C692        C997   1.519       .  S
C692        H699   1.088       .  S
C693        C694   1.543       .  S
C693        C908   1.437       .  S
C694       C1002   1.547   1_655  S
C694        H700   1.106       .  S
C695        H701   1.087       .  S
C696       C1000   1.545   1_445  S
C696        C912   1.449   1_455  S
C697        H702   1.083       .  S
C697        C698   1.372       .  D
C698       C1167   1.496   1_546  S
Zr703       O704   2.438       .  S
Zr703       O705   2.446       .  S
Zr703      O1015   2.509   1_545  S
Zr703      O1018   2.388       .  S
Zr703      O1020   2.413   1_545  S
O704        H760   0.990       .  S
O704        H768   0.990       .  S
O705        C725   1.286       .  A
O706        C727   1.303       .  A
O707       Zr717   2.393       .  S
O707        C726   1.274       .  A
O708       Zr716   2.375       .  S
O708        C727   1.271       .  A
O709      Zr1009   2.512       .  S
O709        C726   1.300       .  A
O710       Zr718   2.412       .  S
O710        C725   1.279       .  A
O711       Zr716   2.389       .  S
O712      Zr1009   2.386       .  S
O712       Zr717   2.370       .  S
O712      Zr1024   2.376       .  S
O712        H747   0.965       .  S
O713       Zr716   2.403       .  S
O713      Zr1039   2.393   1_545  S
O713        H750   0.966       .  S
O714      Zr1009   2.412       .  S
O714       Zr717   2.381       .  S
Zr715       O740   2.436       .  S
Zr715       O734   2.443       .  S
Zr715       O742   2.524       .  S
Zr715      O1036   2.519       .  S
Zr715      O1028   2.412       .  S
Zr715      O1029   2.380       .  S
Zr716       O735   2.439       .  S
Zr716       O728   2.437       .  S
Zr716       O729   2.392       .  S
Zr716       O722   2.390       .  S
Zr716       O723   2.373       .  S
Zr717       O719   2.435       .  S
Zr717       O741   2.441       .  S
Zr717       O743   2.370       .  S
Zr717       O721   2.394       .  S
Zr717       O724   2.381       .  S
Zr718      O1050   2.436   1_545  S
Zr718      O1018   2.376       .  S
Zr718      O1027   2.394   1_545  S
O719        H756   0.990       .  S
O720        H751   0.990       .  S
O720        H765   0.990       .  S
O721      Zr1024   2.393       .  S
O722      Zr1021   2.413   1_545  S
O722        H748   0.967       .  S
O723      Zr1021   2.380   1_545  S
O723      Zr1039   2.375   1_545  S
O724        H749   0.965       .  S
C725        C899   1.429       .  S
C726        C901   1.456       .  S
C727        C904   1.453       .  S
O728        H764   0.990       .  S
O729        C731   1.275       .  A
O730      Zr1021   2.518   1_545  S
O730        C731   1.300       .  A
C731        C896   1.458       .  S
O732       Zr733   2.441       .  S
O732        H761   0.990       .  S
Zr733      O1042   2.439       .  S
Zr733       O738   2.405       .  S
Zr733      O1019   2.395       .  S
Zr733      O1029   2.374       .  S
O734        C739   1.285       .  A
O735        H752   0.990       .  S
O735        H767   0.990       .  S
O736      Zr1039   2.439   1_545  S
O736       H1059   0.990   1_545  S
O737        H766   0.990       .  S
O738        C739   1.278       .  A
C739        C906   1.426       .  S
O740        H759   0.990       .  S
O740        H763   0.990       .  S
O741        H755   0.990       .  S
O741        H762   0.990       .  S
O743        C746   1.271       .  A
O744      Zr1024   2.436       .  S
O744       H1060   0.990       .  S
O745        H758   0.990       .  S
C746        C897   1.453       .  S
H753       O1042   0.990       .  S
H754       O1050   0.990   1_545  S
C769        C770   1.528       .  S
C769        C775   1.558       .  S
C769        C773   1.534       .  S
C769        C895   1.494       .  S
C770        H777   1.082       .  S
C770        C771   1.367       .  D
C771        C772   1.550       .  S
C771        C878   1.496       .  S
C772        C776   1.526       .  S
C772        C774   1.528       .  S
C772        H778   1.107       .  S
C773        H779   1.087       .  S
C773        C774   1.363       .  D
C774        C900   1.437       .  S
C775        H780   1.085       .  S
C775        C776   1.381       .  D
C776        C898   1.465       .  S
C781        C782   1.532       .  S
C781        C787   1.560       .  S
C781        C785   1.530       .  S
C781        C902   1.493       .  S
C782        H789   1.087       .  S
C782        C783   1.361       .  D
C783        C784   1.528       .  S
C783        C905   1.434       .  S
C784        C788   1.525       .  S
C784        C786   1.550       .  S
C784        H790   1.107       .  S
C785        H791   1.083       .  S
C785        C786   1.368       .  D
C787        H792   1.085       .  S
C787        C788   1.382       .  D
C788        C903   1.465       .  S
Zr793       O794   2.440       .  S
Zr793       O795   2.429       .  S
Zr793       O796   2.463       .  S
Zr793       O799   2.452       .  S
Zr793       O801   2.388       .  S
Zr793       O802   2.381       .  S
Zr793       O803   2.404       .  S
Zr793       O804   2.403       .  S
O794        H850   0.990       .  S
O794        H858   0.990       .  S
O795        C815   1.282       .  A
O796        C817   1.289       .  A
O797       Zr807   2.424       .  S
O797        C816   1.281       .  A
O798       Zr806   2.394       .  S
O798        C817   1.275       .  A
O799        C816   1.287       .  A
O800       Zr808   2.401       .  S
O800        C815   1.276       .  A
O801       Zr806   2.393       .  S
O801       Zr808   2.380       .  S
O802       Zr807   2.374       .  S
O802       Zr808   2.380       .  S
O802        H837   0.965       .  S
O803       Zr806   2.405       .  S
O803       Zr823   2.385       .  S
O803        H840   0.965       .  S
O804       Zr807   2.383       .  S
O804       Zr823   2.393       .  S
Zr805       O830   2.439       .  S
Zr805       O824   2.426       .  S
Zr805       O832   2.453       .  S
Zr805       O820   2.459       .  S
Zr805       O811   2.394       .  S
Zr805       O812   2.401       .  S
Zr805       O813   2.373       .  S
Zr805       O814   2.392       .  S
Zr806       O825   2.438       .  S
Zr806       O818   2.436       .  S
Zr806       O819   2.419       .  S
Zr806       O812   2.391       .  S
Zr806       O813   2.376       .  S
Zr807       O809   2.434       .  S
Zr807       O831   2.439       .  S
Zr807       O833   2.396       .  S
Zr807       O811   2.394       .  S
Zr807       O814   2.388       .  S
Zr808       O834   2.435       .  S
Zr808       O835   2.436       .  S
Zr808       O810   2.438       .  S
Zr808       O811   2.383       .  S
Zr808       O812   2.390       .  S
O809        H846   0.990       .  S
O810        H841   0.990       .  S
O810        H855   0.990       .  S
O812        H838   0.966       .  S
O813       Zr823   2.375       .  S
O814       Zr823   2.385       .  S
O814        H839   0.966       .  S
C815        C893   1.417       .  S
C816        C888   1.442       .  S
C817        C886   1.428       .  S
O818        H854   0.990       .  S
O819        C821   1.281       .  A
O820        C821   1.287       .  A
C821        C890   1.442       .  S
O822       Zr823   2.440       .  S
O822        H851   0.990       .  S
Zr823       O826   2.438       .  S
Zr823       O827   2.443       .  S
Zr823       O828   2.402       .  S
O824        C829   1.282       .  A
O825        H842   0.990       .  S
O825        H857   0.990       .  S
O826        H843   0.990       .  S
O827        H847   0.991       .  S
O827        H856   0.989       .  S
O828        C829   1.276       .  A
C829        C883   1.419       .  S
O830        H849   0.990       .  S
O830        H853   0.990       .  S
O831        H845   0.990       .  S
O831        H852   0.990       .  S
O832        C836   1.288       .  A
O833        C836   1.276       .  A
O834        H844   0.990       .  S
O835        H848   0.990       .  S
C836       C1198   1.430       .  S
C859        C860   1.530       .  S
C859       C1171   1.519       .  S
C859        C863   1.528       .  S
C859        C884   1.451       .  S
C860        H867   1.082       .  S
C861       C1168   1.555       .  S
C861       C1004   1.496   1_554  S
C862       C1167   1.553   1_545  S
C862        C866   1.543       .  S
C862       C1170   1.545   1_545  S
C862        H868   1.107       .  S
C863        H869   1.087       .  S
C864       C1168   1.546       .  S
C864        C887   1.448       .  S
C865       C1165   1.519   1_545  S
C865        H870   1.088       .  S
C866        C885   1.435       .  S
C871        C872   1.519       .  S
C871        C877   1.529       .  S
C871        C875   1.529       .  S
C871        C894   1.450       .  S
C872        H879   1.088       .  S
C872        C873   1.352       .  D
C873        C874   1.543       .  S
C873        C891   1.436       .  S
C874        C878   1.555       .  S
C874        C876   1.546       .  S
C874        H880   1.106       .  S
C875        H881   1.087       .  S
C875        C876   1.363       .  D
C876        C889   1.448       .  S
C877        H882   1.082       .  S
C877        C878   1.371       .  D
C883        C884   1.197       .  T
C885        C886   1.202       .  T
C887        C888   1.210       .  T
C889        C890   1.210       .  T
C891        C892   1.203       .  T
C892       C1142   1.430   1_545  S
C895        C896   1.221       .  T
C897        C898   1.220       .  T
C899        C900   1.203       .  T
C901        C902   1.221       .  T
C903        C904   1.220       .  T
C905        C906   1.201       .  T
C907        C908   1.204       .  T
C909        C910   1.199       .  T
C911        C912   1.211       .  T
C913        C914   1.209       .  T
C915        C916   1.196       .  T
C917        C918   1.204       .  T
C918        C943   1.431       .  S
Zr919       O920   2.440       .  S
Zr919       O921   2.430       .  S
Zr919       O922   2.459       .  S
Zr919       O925   2.449       .  S
Zr919       O927   2.388       .  S
Zr919       O928   2.381       .  S
Zr919       O929   2.404       .  S
Zr919       O930   2.401       .  S
O920        H976   0.990       .  S
O920        H984   0.990       .  S
O921        C941   1.283       .  A
O922        C943   1.288       .  A
O923       Zr933   2.421       .  S
O923        C942   1.280       .  A
O924       Zr932   2.402       .  S
O924        C943   1.277       .  A
O925        C942   1.287       .  A
O926       Zr934   2.406       .  S
O926        C941   1.277       .  A
O927       Zr932   2.394       .  S
O927       Zr934   2.379       .  S
O928       Zr933   2.373       .  S
O928       Zr934   2.379       .  S
O928        H963   0.965       .  S
O929       Zr932   2.403       .  S
O929       Zr949   2.388       .  S
O929        H966   0.965       .  S
O930       Zr933   2.382       .  S
O930       Zr949   2.388       .  S
Zr931       O956   2.439       .  S
Zr931       O950   2.425       .  S
Zr931       O958   2.456       .  S
Zr931       O946   2.460       .  S
Zr931       O937   2.395       .  S
Zr931       O938   2.403       .  S
Zr931       O939   2.375       .  S
Zr931       O940   2.391       .  S
Zr932       O951   2.437       .  S
Zr932       O944   2.435       .  S
Zr932       O945   2.424       .  S
Zr932       O938   2.395       .  S
Zr932       O939   2.376       .  S
Zr933       O935   2.435       .  S
Zr933       O957   2.439       .  S
Zr933       O959   2.393       .  S
Zr933       O937   2.394       .  S
Zr933       O940   2.389       .  S
Zr934       O960   2.436       .  S
Zr934       O961   2.436       .  S
Zr934       O936   2.437       .  S
Zr934       O937   2.386       .  S
Zr934       O938   2.391       .  S
O935        H972   0.990       .  S
O936        H967   0.990       .  S
O936        H981   0.990       .  S
O938        H964   0.966       .  S
O939       Zr949   2.378       .  S
O940       Zr949   2.386       .  S
O940        H965   0.966       .  S
C941       C1215   1.420       .  S
C942       C1219   1.439       .  S
O944        H980   0.990       .  S
O945        C947   1.281       .  A
O946        C947   1.287       .  A
C947       C1217   1.445       .  S
O948       Zr949   2.442       .  S
O948        H977   0.990       .  S
Zr949       O952   2.438       .  S
Zr949       O953   2.444       .  S
Zr949       O954   2.402       .  S
O950        C955   1.281       .  A
O951        H968   0.990       .  S
O951        H983   0.990       .  S
O952        H969   0.990       .  S
O953        H973   0.990       .  S
O953        H982   0.990       .  S
O954        C955   1.277       .  A
O956        H975   0.990       .  S
O956        H979   0.990       .  S
O957        H971   0.990       .  S
O957        H978   0.990       .  S
O958        C962   1.288       .  A
O959        C962   1.275       .  A
O960        H970   0.990       .  S
O961        H974   0.990       .  S
C962       C1213   1.430       .  S
C985        C986   1.529       .  S
C985        C991   1.520       .  S
C985        C989   1.528       .  S
C985       C1222   1.450       .  S
C986        H993   1.082       .  S
C986        C987   1.371       .  D
C987        C988   1.554       .  S
C987       C1092   1.496       .  S
C988        C992   1.544       .  S
C988        C990   1.545       .  S
C988        H994   1.107       .  S
C989        H995   1.087       .  S
C989        C990   1.362       .  D
C990       C1220   1.446       .  S
C991        H996   1.088       .  S
C991        C992   1.351       .  D
C992       C1223   1.438       .  S
C997       C1003   1.530       .  S
C997       C1001   1.530       .  S
C997       C1216   1.453       .  S
C998       H1005   1.088       .  S
C999       C1000   1.541       .  S
C999       C1214   1.436       .  S
C1000      H1006   1.106       .  S
C1001      H1007   1.087       .  S
C1002      C1218   1.451   1_455  S
C1003      H1008   1.083       .  S
C1003      C1004   1.372       .  D
Zr1009     O1010   2.438       .  S
Zr1009     O1011   2.446       .  S
O1010      H1066   0.990       .  S
O1010      H1074   0.990       .  S
O1011      C1031   1.286       .  A
O1012      C1033   1.303       .  A
O1013     Zr1023   2.394       .  S
O1013      C1032   1.275       .  A
O1014     Zr1022   2.373       .  S
O1014      C1033   1.271       .  A
O1015      C1032   1.300       .  A
O1016     Zr1024   2.413       .  S
O1016      C1031   1.279       .  A
O1017     Zr1022   2.392       .  S
O1018     Zr1023   2.370   1_545  S
O1018      H1053   0.965   1_545  S
O1019     Zr1022   2.403       .  S
O1019      H1056   0.966       .  S
O1020     Zr1023   2.383       .  S
Zr1021     O1046   2.436       .  S
Zr1021     O1040   2.444       .  S
Zr1021     O1048   2.529       .  S
Zr1022     O1041   2.439       .  S
Zr1022     O1034   2.435       .  S
Zr1022     O1035   2.396       .  S
Zr1022     O1028   2.392       .  S
Zr1022     O1029   2.371       .  S
Zr1023     O1025   2.435       .  S
Zr1023     O1047   2.441       .  S
Zr1023     O1049   2.370       .  S
Zr1023     O1027   2.393       .  S
Zr1023     O1030   2.382       .  S
O1025      H1062   0.990       .  S
O1026      H1057   0.990       .  S
O1026      H1071   0.990       .  S
O1028      H1054   0.967       .  S
O1030      H1055   0.965       .  S
C1031      C1205   1.430       .  S
C1032      C1207   1.455       .  S
C1033      C1210   1.452       .  S
O1034      H1070   0.990       .  S
O1035      C1037   1.275       .  A
O1036      C1037   1.301       .  A
C1037      C1202   1.460       .  S
O1038     Zr1039   2.441       .  S
O1038      H1067   0.990       .  S
Zr1039     O1044   2.403       .  S
O1040      C1045   1.286       .  A
O1041      H1058   0.990       .  S
O1041      H1073   0.990       .  S
O1043      H1072   0.990       .  S
O1044      C1045   1.277       .  A
C1045      C1212   1.427       .  S
O1046      H1065   0.990       .  S
O1046      H1069   0.990       .  S
O1047      H1061   0.990       .  S
O1047      H1068   0.990       .  S
O1049      C1052   1.270       .  A
O1051      H1064   0.990       .  S
C1052      C1203   1.457       .  S
C1075      C1076   1.529       .  S
C1075      C1081   1.561       .  S
C1075      C1079   1.535       .  S
C1075      C1201   1.498       .  S
C1076      H1083   1.083       .  S
C1076      C1077   1.367       .  D
C1077      C1078   1.550       .  S
C1077      C1184   1.496       .  S
C1078      C1082   1.525       .  S
C1078      C1080   1.528       .  S
C1078      H1084   1.107       .  S
C1079      H1085   1.087       .  S
C1079      C1080   1.363       .  D
C1080      C1206   1.438       .  S
C1081      H1086   1.085       .  S
C1081      C1082   1.383       .  D
C1082      C1204   1.469       .  S
C1087      C1088   1.532       .  S
C1087      C1093   1.558       .  S
C1087      C1091   1.529       .  S
C1087      C1208   1.492       .  S
C1088      H1095   1.087       .  S
C1088      C1089   1.361       .  D
C1089      C1090   1.528       .  S
C1089      C1211   1.435       .  S
C1090      C1094   1.526       .  S
C1090      C1092   1.550       .  S
C1090      H1096   1.107       .  S
C1091      H1097   1.083       .  S
C1091      C1092   1.368       .  D
C1093      H1098   1.086       .  S
C1093      C1094   1.381       .  D
C1094      C1209   1.464       .  S
Zr1099     O1100   2.440       .  S
Zr1099     O1101   2.427       .  S
Zr1099     O1102   2.461       .  S
Zr1099     O1105   2.448       .  S
Zr1099     O1107   2.389       .  S
Zr1099     O1108   2.383       .  S
Zr1099     O1109   2.402       .  S
Zr1099     O1110   2.402       .  S
O1100      H1156   0.990       .  S
O1100      H1164   0.990       .  S
O1101      C1121   1.282       .  A
O1102      C1123   1.288       .  A
O1103     Zr1113   2.426       .  S
O1103      C1122   1.281       .  A
O1104     Zr1112   2.396       .  S
O1104      C1123   1.275       .  A
O1105      C1122   1.286       .  A
O1106     Zr1114   2.400       .  S
O1106      C1121   1.276       .  A
O1107     Zr1112   2.393       .  S
O1107     Zr1114   2.382       .  S
O1108     Zr1113   2.373       .  S
O1108     Zr1114   2.380       .  S
O1108      H1143   0.966       .  S
O1109     Zr1112   2.403       .  S
O1109     Zr1129   2.385       .  S
O1109      H1146   0.965       .  S
O1110     Zr1113   2.382       .  S
O1110     Zr1129   2.392       .  S
Zr1111     O1136   2.439       .  S
Zr1111     O1130   2.426       .  S
Zr1111     O1138   2.452       .  S
Zr1111     O1126   2.457       .  S
Zr1111     O1117   2.394       .  S
Zr1111     O1118   2.401       .  S
Zr1111     O1119   2.373       .  S
Zr1111     O1120   2.391       .  S
Zr1112     O1131   2.438       .  S
Zr1112     O1124   2.436       .  S
Zr1112     O1125   2.417       .  S
Zr1112     O1118   2.391       .  S
Zr1112     O1119   2.377       .  S
Zr1113     O1115   2.434       .  S
Zr1113     O1137   2.439       .  S
Zr1113     O1139   2.398       .  S
Zr1113     O1117   2.392       .  S
Zr1113     O1120   2.387       .  S
Zr1114     O1140   2.436       .  S
Zr1114     O1141   2.436       .  S
Zr1114     O1116   2.438       .  S
Zr1114     O1117   2.382       .  S
Zr1114     O1118   2.390       .  S
O1115      H1152   0.990   1_565  S
O1116      H1147   0.990       .  S
O1116      H1161   0.990       .  S
O1118      H1144   0.966       .  S
O1119     Zr1129   2.375       .  S
O1120     Zr1129   2.385       .  S
O1120      H1145   0.966       .  S
C1121      C1199   1.416       .  S
C1122      C1194   1.441       .  S
C1123      C1192   1.429       .  S
O1124      H1160   0.990       .  S
O1125      C1127   1.280       .  A
O1126      C1127   1.287       .  A
C1127      C1196   1.441       .  S
O1128     Zr1129   2.441       .  S
O1128      H1157   0.990       .  S
Zr1129     O1132   2.438       .  S
Zr1129     O1133   2.443       .  S
Zr1129     O1134   2.402       .  S
O1130      C1135   1.282       .  A
O1131      H1148   0.990       .  S
O1131      H1163   0.990       .  S
O1132      H1149   0.990       .  S
O1133      H1153   0.990       .  S
O1133      H1162   0.989       .  S
O1134      C1135   1.276       .  A
C1135      C1189   1.419       .  S
O1136      H1155   0.991       .  S
O1136      H1159   0.990       .  S
O1137      H1151   0.990       .  S
O1137      H1158   0.990       .  S
O1138      C1142   1.288       .  A
O1139      C1142   1.277       .  A
O1140      H1150   0.990       .  S
O1141      H1154   0.990       .  S
C1165      C1166   1.530       .  S
C1165      C1169   1.528       .  S
C1165      C1190   1.451       .  S
C1166      H1173   1.082       .  S
C1168      C1172   1.543       .  S
C1168      H1174   1.107       .  S
C1169      H1175   1.087       .  S
C1170      C1193   1.447       .  S
C1171      H1176   1.088       .  S
C1172      C1191   1.435       .  S
C1177      C1178   1.519       .  S
C1177      C1183   1.528       .  S
C1177      C1181   1.528       .  S
C1177      C1200   1.448       .  S
C1178      H1185   1.088       .  S
C1178      C1179   1.351       .  D
C1179      C1180   1.543       .  S
C1179      C1197   1.436       .  S
C1180      C1184   1.555       .  S
C1180      C1182   1.546       .  S
C1180      H1186   1.106       .  S
C1181      H1187   1.087       .  S
C1181      C1182   1.362       .  D
C1182      C1195   1.447       .  S
C1183      H1188   1.082       .  S
C1183      C1184   1.371       .  D
C1189      C1190   1.197       .  T
C1191      C1192   1.203       .  T
C1193      C1194   1.209       .  T
C1195      C1196   1.209       .  T
C1197      C1198   1.203       .  T
C1201      C1202   1.223       .  T
C1203      C1204   1.222       .  T
C1205      C1206   1.204       .  T
C1207      C1208   1.220       .  T
C1209      C1210   1.219       .  T
C1211      C1212   1.202       .  T
C1213      C1214   1.203       .  T
C1215      C1216   1.198       .  T
C1217      C1218   1.212       .  T
C1219      C1220   1.209       .  T
C1221      C1222   1.196       .  T
C1223      C1224   1.204       .  T
