geometry optimzed in LAMMPS
_audit_creation_date              2020-11-30 
_audit_creation_method            'lammps2cif' 
_symmetry_space_group_name_H-M    'P1' 
_symmetry_Int_Tables_number       1 
_symmetry_cell_setting            triclinic 
loop_ 
_symmetry_equiv_pos_as_xyz 
  x,y,z 
_cell_length_a                    33.22071101 
_cell_length_b                    20.780543775871834 
_cell_length_c                    44.2869785874848 
_cell_angle_alpha                 89.74492133930367 
_cell_angle_beta                  90.99569408182474 
_cell_angle_gamma                 89.93812908586618 
loop_ 
_atom_site_label 
_atom_site_type_symbol 
_atom_site_fract_x 
_atom_site_fract_y 
_atom_site_fract_z 
_atom_site_charge 
C1          C  0.94697306  0.39270156  0.11904756     0.87700
C2          C  0.97683595  0.44851444  0.11675087    -0.52500
C3          C  0.99933921  0.44757719  0.09123898     0.10600
C4          C  0.98977000  0.38925578  0.07050451     0.21600
C5          C  0.92159602  0.39566857  0.08980969    -0.53200
C6          C  0.94404177  0.39348143  0.06431662     0.10700
C7          C  0.97222620  0.33139561  0.11642788    -0.52800
C8          C  0.99458773  0.32887935  0.09086884     0.11300
H9          H  0.97920606  0.48631285  0.13355835     0.15800
H10         H  0.00769511  0.38769264  0.04958270     0.01600
H11         H  0.88892085  0.39795388  0.08927534     0.16100
H12         H  0.97195606  0.29298673  0.13315103     0.15900
C13         C  0.53536920  0.13854907  0.36827055     0.87700
C14         C  0.50816786  0.07940085  0.36523941    -0.52500
C15         C  0.48557567  0.07873494  0.33912521     0.10600
C16         C  0.49214574  0.13837802  0.31880915     0.21600
C17         C  0.56053494  0.13903362  0.33964146    -0.53200
C18         C  0.53776253  0.13888519  0.31375115     0.10700
C19         C  0.50735687  0.19675050  0.36517208    -0.52800
C20         C  0.48477120  0.19737022  0.33912561     0.11300
H21         H  0.50741113  0.04107891  0.38198416     0.15800
H22         H  0.47411216  0.13836051  0.29745173     0.01600
H23         H  0.59324811  0.13958360  0.33976703     0.16100
H24         H  0.50630171  0.23493114  0.38182773     0.15900
O25         O  0.55994115  0.19331227  0.27045596    -0.77300
C26         C  0.67507312  0.26510258  0.23864502     0.83800
O27         O  0.53213925  0.23162191  0.16790163    -0.78400
O28         O  0.66707821  0.15300596  0.15251624    -0.79900
O29         O  0.64240767  0.01172639  0.23654869    -0.79700
O30         O  0.56696896  0.08645354  0.27245331    -0.78300
Zn31       Zn  0.58728181  0.22181545  0.23248837     1.55700
O32         O  0.68929002  0.07283930  0.21530723    -0.79700
Cd33       Cd  0.59002094  0.06516914  0.23060509     1.59700
Cd34       Cd  0.56711577  0.14705209  0.16930120     1.59600
O35         O  0.54832808  0.00747333  0.20861295    -0.79700
O36         O  0.59992610  0.14697011  0.20776290    -1.90200
Cd37       Cd  0.65830470  0.15040917  0.19820815     1.59900
O38         O  0.53073861  0.06347822  0.16731567    -0.79600
O39         O  0.68681647  0.22605876  0.21861574    -0.78300
C40         C  0.52968013  0.28070361  0.18522437     0.84200
C41         C  0.55565831  0.13950700  0.28384519     0.83900
O42         O  0.63833427  0.26813778  0.24634384    -0.77200
C43         C  0.67883171  0.02273967  0.22966085     0.84700
O44         O  0.54980698  0.28401391  0.20997741    -0.77300
C45         C  0.52764226  0.01361095  0.18430401     0.84800
C46         C  0.64366200  0.15050928  0.12953274     0.85200
O47         O  0.60534162  0.14764722  0.13186952    -0.79800
C48         C  0.66376947  0.14636782  0.04360909     0.87700
C49         C  0.68922561  0.08479030  0.03989865    -0.52500
C50         C  0.70830226  0.08212450  0.01289774     0.10600
C51         C  0.69859554  0.14659346  0.48995537     0.21600
C52         C  0.69324053  0.20237080  0.03781282    -0.53200
C53         C  0.71280513  0.19776271  0.01095752     0.10700
C54         C  0.63490147  0.14696633  0.01626665    -0.52800
C55         C  0.65292441  0.15373632  0.49271063     0.11300
H56         H  0.69298151  0.04824479  0.05732576     0.15800
H57         H  0.70890175  0.14222784  0.46630395     0.01600
H58         H  0.69934230  0.24034099  0.05401610     0.16100
H59         H  0.60232495  0.14879631  0.01794290     0.15900
O60         O  0.91994497  0.33767547  0.02113364    -0.77300
C61         C  0.81134577  0.26126117  0.47035754     0.83800
O62         O  0.96380837  0.29134532  0.42388614    -0.78400
O63         O  0.83449933  0.39396538  0.39171231    -0.79900
O64         O  0.84789026  0.49202798  0.49364931    -0.79700
O65         O  0.91524011  0.44480755  0.02130336    -0.78300
Zn66       Zn  0.89812488  0.30080898  0.48067011     1.55700
O67         O  0.80391739  0.45429131  0.45953924    -0.79700
Cd68       Cd  0.90173899  0.45319863  0.48070352     1.59700
Cd69       Cd  0.92975550  0.37615368  0.42114562     1.59600
O70         O  0.93520115  0.52038602  0.45823653    -0.79700
O71         O  0.89188448  0.37656227  0.45525017    -1.90200
Cd72       Cd  0.83616006  0.38361647  0.43830636     1.59900
O73         O  0.96209175  0.46361672  0.42082664    -0.79600
O74         O  0.80454237  0.30327387  0.44996042    -0.78300
C75         C  0.96071451  0.24069279  0.44031365     0.84200
C76         C  0.92558841  0.39193121  0.03388081     0.83900
O77         O  0.84492824  0.25635450  0.48444276    -0.77200
C78         C  0.81238138  0.48826518  0.48265239     0.84700
O79         O  0.93647397  0.23771951  0.46221470    -0.77300
C80         C  0.95857282  0.51590819  0.43587970     0.84800
C81         C  0.86166431  0.38292288  0.37240695     0.85200
O82         O  0.89812781  0.37162992  0.38019339    -0.79800
C83         C  0.81090691  0.41728014  0.29461562     0.87700
C84         C  0.78574419  0.47530531  0.28361778    -0.52500
C85         C  0.77336109  0.47076054  0.25415477     0.10600
C86         C  0.78782171  0.40989505  0.23822194     0.21600
C87         C  0.78416603  0.35846340  0.28750026    -0.53200
C88         C  0.77219088  0.35519085  0.25788588     0.10700
C89         C  0.84597777  0.41351866  0.27238450    -0.52800
C90         C  0.83358802  0.40920740  0.24296028     0.11300
H91         H  0.77642593  0.51424309  0.29822318     0.15800
H92         H  0.77784751  0.40679363  0.21417210     0.01600
H93         H  0.77472429  0.32385071  0.30438931     0.16100
H94         H  0.87752927  0.41400937  0.27924634     0.15900
C95         C  0.44957292  0.39010761  0.14751705     0.87700
C96         C  0.47922922  0.33384081  0.15062421    -0.52500
C97         C  0.50197856  0.33459271  0.17663856     0.10600
C98         C  0.49300066  0.39341401  0.19693348     0.21600
C99         C  0.42461903  0.38799467  0.17632901    -0.53200
C100        C  0.44737412  0.38983996  0.20224843     0.10700
C101        C  0.47520338  0.45116168  0.15043924    -0.52800
C102        C  0.49782313  0.45372923  0.17650895     0.11300
H103        H  0.48107211  0.29561751  0.13404472     0.15800
H104        H  0.51112130  0.39477555  0.21823267     0.01600
H105        H  0.39194700  0.38563984  0.17626984     0.16100
H106        H  0.47468557  0.48956943  0.13371675     0.15900
C107        C  0.03341568  0.11885766  0.40614237     0.87700
C108        C  0.00833890  0.18023263  0.40827826    -0.52500
C109        C  0.98560621  0.18346234  0.43354387     0.10600
C110        C  0.98978523  0.12325012  0.45418365     0.21600
C111        C  0.05826491  0.11601114  0.43560838    -0.53200
C112        C  0.03534730  0.11831436  0.46084664     0.10700
C113        C  0.00340632  0.06327054  0.40820810    -0.52800
C114        C  0.98053514  0.06468982  0.43353872     0.11300
H115        H  0.00906694  0.21835053  0.39141561     0.15800
H116        H  0.97147299  0.12527016  0.47490404     0.01600
H117        H  0.09092680  0.11329184  0.43647587     0.18100
H118        H  0.00134408  0.02518486  0.39152667     0.15900
O119        O  0.05985321  0.07912983  0.00337273    -0.77300
C120        C  0.17420444  0.01992949  0.05311284     0.83800
O121        O  0.01730452  0.04882169  0.09968005    -0.78400
O122        O  0.14241038  0.13888134  0.13442153    -0.79900
O123        O  0.13879687  0.25656331  0.03685819    -0.79700
O124        O  0.06232123  0.17292475  0.50324120    -0.78300
Zn125      Zn  0.08580094  0.05681367  0.04399461     1.55700
O126        O  0.17950011  0.20839809  0.07079021    -0.79700
Cd127      Cd  0.08369951  0.21206764  0.04281292     1.59700
Cd128      Cd  0.04944930  0.13492808  0.10061739     1.59600
O129        O  0.04525905  0.27777677  0.06235923    -0.79700
O130        O  0.09063987  0.13370198  0.06854976    -1.90200
Cd131      Cd  0.14517764  0.13444973  0.08795593     1.59900
O132        O  0.01548617  0.21980299  0.09817892    -0.79600
O133        O  0.17743917  0.05419930  0.07670293    -0.78300
C134        C  0.02341742  0.99588961  0.08581593     0.84200
C135        C  0.05329533  0.11893838  0.49141510     0.83900
O136        O  0.14198231  0.01901232  0.03692023    -0.77200
C137        C  0.17299561  0.24982584  0.05000528     0.84700
O138        O  0.04957568  0.99133724  0.06508274    -0.77300
C139        C  0.01972465  0.27232010  0.08334033     0.84800
C140        C  0.11284512  0.13809381  0.15238850     0.85200
O141        O  0.07649463  0.13656603  0.14291549    -0.79800
C142        C  0.16802563  0.13170836  0.23057328     0.87700
C143        C  0.19694684  0.18680453  0.23908495    -0.52500
C144        C  0.20962918  0.18516187  0.26852822     0.10600
C145        C  0.19254509  0.12941513  0.28677230     0.21600
C146        C  0.19115102  0.07018109  0.23952920    -0.53200
C147        C  0.20449838  0.06981907  0.26882476     0.10700
C148        C  0.13357704  0.13582978  0.25348228    -0.52800
C149        C  0.14686875  0.13420140  0.28274042     0.11300
H150        H  0.20757091  0.22239225  0.22305504     0.15800
H151        H  0.20312606  0.12825407  0.31073282     0.01600
H152        H  0.19921702  0.03305602  0.22352476     0.16100
H153        H  0.10175476  0.13777690  0.24782543     0.15900
O154        O  0.34566687  0.26557411  0.27367412    -0.77300
C155        C  0.42935587  0.38970040  0.23237490     0.83800
O156        O  0.45885811  0.30277628  0.34698618    -0.78400
O157        O  0.43343320  0.52792417  0.30699215    -0.79900
O158        O  0.29830597  0.45634160  0.31023337    -0.79700
O159        O  0.30167034  0.30316733  0.30667227    -0.78300
Zn160      Zn  0.39827216  0.30976541  0.28512463     1.55700
O161        O  0.34019887  0.51098543  0.28059958    -0.79700
Cd162      Cd  0.33157048  0.37894641  0.32588256     1.59700
Cd163      Cd  0.42459468  0.38682144  0.34621710     1.59600
O164        O  0.32923938  0.37427314  0.37294818    -0.79700
O165        O  0.38761423  0.38413600  0.31044056    -1.90200
Cd166      Cd  0.39464879  0.46412713  0.28580614     1.59900
O167        O  0.39335690  0.39045116  0.38644920    -0.79600
O168        O  0.41824457  0.44293925  0.24376540    -0.78300
C169        C  0.45820537  0.25209825  0.33066919     0.84200
C170        C  0.31040515  0.26713789  0.28457086     0.83900
O171        O  0.42477545  0.33621090  0.24603972    -0.77200
C172        C  0.30569017  0.50218819  0.29198348     0.84700
O173        O  0.43567689  0.24758417  0.30715351    -0.77300
C174        C  0.35654647  0.38284047  0.39316633     0.84800
C175        C  0.45665376  0.52256766  0.33002471     0.85200
O176        O  0.45850749  0.47093013  0.34579581    -0.79800
C177        C  0.30284002  0.35503501  0.46939025     0.87700
C178        C  0.27296553  0.30170874  0.47792226    -0.52500
C179        C  0.26690330  0.31124318  0.01116238     0.10600
C180        C  0.28229022  0.37177153  0.02738622     0.21600
C181        C  0.28023534  0.41807304  0.47609990    -0.53200
C182        C  0.26784680  0.42686370  0.00699799     0.10700
C183        C  0.34086374  0.36556581  0.99522959    -0.52800
C184        C  0.32816092  0.37042135  0.02422828     0.11300
H185        H  0.26182851  0.26597491  0.46202394     0.15800
H186        H  0.27237209  0.37608659  0.05112831     0.01600
H187        H  0.27349176  0.45456707  0.45912938     0.16100
H188        H  0.37262271  0.36369002  0.99018219     0.15900
C189        C  0.34556907  0.38607535  0.42536637    -0.15200
C190        C  0.31605807  0.34980270  0.43685933    -0.30400
H191        H  0.36279259  0.41773407  0.44012275     0.13800
H192        H  0.30077591  0.31544714  0.42222185     0.14400
C193        C  0.24078834  0.22758368  0.28133346    -0.15200
C194        C  0.27837106  0.22774492  0.27059670    -0.30400
H195        H  0.23374607  0.25346007  0.30182948     0.13800
H196        H  0.28557592  0.19840835  0.25114498     0.14400
C197        C  0.23544320  0.02465286  0.27981167    -0.15200
C198        C  0.27051467  0.04765583  0.29056268    -0.30400
H199        H  0.23159133  0.97346019  0.27578192     0.13800
H200        H  0.27602840  0.09905637  0.29117724     0.14400
C201        C  0.12030118  0.13832763  0.18527819    -0.15200
C202        C  0.15763611  0.13294730  0.19719301    -0.30400
H203        H  0.09424967  0.14180235  0.19947191     0.13800
H204        H  0.18296628  0.12910095  0.18209491     0.14400
C205        C  0.23616123  0.26793296  0.02384814    -0.15200
C206        C  0.20620303  0.29116248  0.04063713    -0.30400
H207        H  0.23575686  0.21780140  0.01695575     0.13800
H208        H  0.20400388  0.34220605  0.04529633     0.14400
C209        C  0.23996988  0.47623888  0.01787844    -0.15200
C210        C  0.19998890  0.46641423  0.01670674    -0.30400
H211        H  0.25261222  0.51766873  0.02945932     0.13800
H212        H  0.18796995  0.42478489  0.00485817     0.14400
C213        C  0.05768301  0.11768738  0.37893012    -0.17300
C214        C  0.07698156  0.12076551  0.35625407     0.06800
C215        C  0.09975254  0.12678199  0.32992030     0.08600
C216        C  0.12028264  0.13154010  0.30793716    -0.18100
C217        C  0.42476740  0.38745481  0.11967357    -0.17300
C218        C  0.40365266  0.38368022  0.09726294     0.06800
C219        C  0.37806740  0.37861921  0.07148442     0.08600
C220        C  0.35563740  0.37455877  0.04981786    -0.18100
C221        C  0.85070479  0.38105357  0.34002666    -0.15200
C222        C  0.82333984  0.42129391  0.32759689    -0.30400
H223        H  0.86630642  0.34687172  0.32588130     0.13800
H224        H  0.80970423  0.45799052  0.34155424     0.14400
C225        C  0.73748036  0.03892947  0.49926561    -0.15200
C226        C  0.77724284  0.04359817  0.50491183    -0.30400
H227        H  0.72736639  0.98702288  0.99660896     0.13800
H228        H  0.78847318  0.08163243  0.51957874     0.14400
C229        C  0.74808958  0.24533149  0.49489043    -0.15200
C230        C  0.77833223  0.21997183  0.47928715    -0.30400
H231        H  0.74600648  0.29045206  0.01118059     0.13800
H232        H  0.78044125  0.16856116  0.47541763     0.14400
C233        C  0.66284751  0.15001775  0.09970225    -0.15200
C234        C  0.64225256  0.14978298  0.07340166    -0.30400
H235        H  0.69555415  0.14901114  0.09933122     0.13800
H236        H  0.60955496  0.15119994  0.07339247     0.14400
C237        C  0.70706595  0.48969247  0.23170630    -0.15200
C238        C  0.74265881  0.51380304  0.24085244    -0.30400
H239        H  0.70328980  0.92540504  0.23448302     0.13800
H240        H  0.74727475  0.56552942  0.24187803     0.14400
C241        C  0.70496266  0.30712696  0.25368792    -0.15200
C242        C  0.74374433  0.30752116  0.24556591    -0.30400
H243        H  0.69491740  0.33935676  0.27131429     0.13800
H244        H  0.75363601  0.27861031  0.22670904     0.14400
C245        C  0.62602226  0.15231331  0.46697413    -0.17300
C246        C  0.60446106  0.14890988  0.44494355     0.06800
C247        C  0.58009410  0.14357890  0.41876299     0.08600
C248        C  0.55975414  0.13979961  0.39609908    -0.18100
C249        C  0.86086111  0.40437000  0.21814509    -0.17300
C250        C  0.88155635  0.40053365  0.19614962     0.06800
C251        C  0.90416755  0.39688136  0.16953604     0.08600
C252        C  0.92313720  0.39462746  0.14661170    -0.18100
C253        C  0.94927835  0.37519188  0.61971413     0.87700
C254        C  0.97720045  0.43364880  0.61798566    -0.52500
C255        C  0.00085341  0.43416709  0.59306289     0.10600
C256        C  0.99457593  0.37481092  0.57246824     0.21600
C257        C  0.92537276  0.37521161  0.58979835    -0.53200
C258        C  0.94926119  0.37487299  0.56506025     0.10700
C259        C  0.97676540  0.31630736  0.61810935    -0.52800
C260        C  0.00032028  0.31525987  0.59312660     0.11300
H261        H  0.97734331  0.47203798  0.63456287     0.15800
H262        H  0.01352486  0.37445435  0.55205140     0.01600
H263        H  0.89269160  0.37566124  0.58826804     0.16100
H264        H  0.97649006  0.27771218  0.63474061     0.15900
C265        C  0.53963923  0.11788466  0.86427877     0.87700
C266        C  0.51177678  0.05930532  0.86340260    -0.52500
C267        C  0.48691076  0.05781207  0.83851205     0.10600
C268        C  0.49204030  0.11654492  0.81715944     0.21600
C269        C  0.56205923  0.11629792  0.83446910    -0.53200
C270        C  0.53703322  0.11571374  0.80981641     0.10700
C271        C  0.51199980  0.17675603  0.86197447    -0.52800
C272        C  0.48714606  0.17691841  0.83707714     0.11300
H273        H  0.51254615  0.02155920  0.88045241     0.15800
H274        H  0.47218588  0.11604428  0.79672306     0.01600
H275        H  0.59467717  0.11662786  0.83290819     0.16100
H276        H  0.51302587  0.21586847  0.87816876     0.15900
O277        O  0.55324435  0.17073643  0.76529452    -0.77300
C278        C  0.66801722  0.23988413  0.73163405     0.83800
O279        O  0.51854230  0.21004567  0.66694494    -0.78400
O280        O  0.64692295  0.14558113  0.64020837    -0.79900
O281        O  0.64678516  0.00608438  0.73265231    -0.79700
O282        O  0.56670132  0.06552556  0.76823944    -0.78300
Zn283      Zn  0.58004896  0.20018531  0.72750020     1.55700
O284        O  0.68168940  0.05542878  0.69676243    -0.79700
Cd285      Cd  0.58918487  0.04539775  0.72623833     1.59700
Cd286      Cd  0.55280141  0.12487790  0.66783218     1.59600
O287        O  0.54922132  0.98067476  0.70554810    -0.79700
O288        O  0.59168214  0.12682718  0.70228411    -1.90200
Cd289      Cd  0.64701556  0.13483659  0.68645779     1.59900
O290        O  0.51866696  0.04102569  0.66998841    -0.79600
O291        O  0.67763432  0.20637265  0.70884970    -0.78300
C292        C  0.52000666  0.26100231  0.68310972     0.84200
C293        C  0.55259598  0.11714566  0.77925904     0.83900
O294        O  0.63210739  0.24179600  0.74118729    -0.77200
C295        C  0.67905119  0.01403973  0.71782970     0.84700
O296        O  0.54331271  0.26491136  0.70621787    -0.77300
C297        C  0.52257574  0.98809154  0.68464057     0.84800
C298        C  0.61979785  0.13208843  0.62053250     0.85200
O299        O  0.58361650  0.11968663  0.62761308    -0.79800
C300        C  0.67423016  0.15682300  0.54525255     0.87700
C301        C  0.69712195  0.09378029  0.53898806    -0.52500
C302        C  0.70992236  0.08908048  0.50992926     0.10600
C303        C  0.69990243  0.13937024  0.99203422     0.21600
C304        C  0.70330924  0.21033336  0.53584414    -0.53200
C305        C  0.71633957  0.20428777  0.50700817     0.10700
C306        C  0.63990758  0.15963342  0.52154301    -0.52800
C307        C  0.65397049  0.14317006  0.98943029     0.11300
H308        H  0.70414055  0.05789116  0.55619320     0.15800
H309        H  0.71454247  0.13551482  0.96976359     0.01600
H310        H  0.71405739  0.24785683  0.55096917     0.16100
H311        H  0.60835146  0.16511482  0.52701106     0.15900
O312        O  0.91949135  0.32404026  0.52251660    -0.77300
C313        C  0.80748540  0.26612581  0.97499533     0.83800
O314        O  0.96160616  0.30280823  0.92487939    -0.78400
O315        O  0.83368002  0.37249357  0.88897962    -0.79900
O316        O  0.83179548  0.50017360  0.98502491    -0.79700
O317        O  0.93150542  0.42943193  0.52020211    -0.78300
Zn318      Zn  0.89484224  0.30981627  0.98104058     1.55700
O319        O  0.79728089  0.45777944  0.94622641    -0.79700
Cd320      Cd  0.88964365  0.46420812  0.97915620     1.59700
Cd321      Cd  0.92654719  0.38576296  0.92241662     1.59600
O322        O  0.92658475  0.53157515  0.95804458    -0.79700
O323        O  0.88606454  0.38383854  0.95484115    -1.90200
Cd324      Cd  0.83159678  0.37949793  0.93540149     1.59900
O325        O  0.95811579  0.47234910  0.92364441    -0.79600
O326        O  0.79969557  0.30407592  0.95306205    -0.78300
C327        C  0.95770330  0.25091920  0.94018498     0.84200
C328        C  0.93276103  0.37597279  0.53420374     0.83900
O329        O  0.84179706  0.26441693  0.98834768    -0.77200
C330        C  0.79975171  0.49499517  0.96885798     0.84700
O331        O  0.93260033  0.24637584  0.96152332    -0.77300
C332        C  0.95281125  0.52554708  0.93747584     0.84800
C333        C  0.86297551  0.37576293  0.87085290     0.85200
O334        O  0.89921673  0.38192854  0.88016129    -0.79800
C335        C  0.80772599  0.37189034  0.79250249     0.87700
C336        C  0.78377113  0.43267856  0.78362440    -0.52500
C337        C  0.77107155  0.43342859  0.75418524     0.10600
C338        C  0.78428978  0.37485652  0.73602407     0.21600
C339        C  0.77980130  0.31580356  0.78332497    -0.53200
C340        C  0.76781198  0.31784544  0.75367865     0.10700
C341        C  0.84264352  0.36934429  0.76990906    -0.52800
C342        C  0.82994248  0.37121832  0.74052245     0.11300
H343        H  0.77509746  0.46933484  0.79968162     0.15800
H344        H  0.77412624  0.37626856  0.71197060     0.01600
H345        H  0.76947661  0.27921698  0.79896932     0.16100
H346        H  0.87434195  0.36634425  0.77584244     0.15900
C347        C  0.44183460  0.37673787  0.64735164     0.87700
C348        C  0.46940548  0.31765875  0.64984947    -0.52500
C349        C  0.49350880  0.31666441  0.67516023     0.10600
C350        C  0.48788951  0.37636949  0.69546936     0.21600
C351        C  0.41840307  0.37746155  0.67692214    -0.53200
C352        C  0.44262879  0.37727940  0.70213935     0.10700
C353        C  0.46994788  0.43522043  0.64933586    -0.52800
C354        C  0.49399533  0.43576849  0.67475230     0.11300
H355        H  0.46903645  0.27912580  0.63334793     0.15800
H356        H  0.50711379  0.37607231  0.71624044     0.01600
H357        H  0.38575226  0.37757257  0.67787163     0.16100
H358        H  0.46995408  0.47353050  0.63257246     0.15900
C359        C  0.03068316  0.13101833  0.90473962     0.87700
C360        C  0.00536432  0.19216557  0.90726438    -0.52500
C361        C  0.98274284  0.19431990  0.93269683     0.10600
C362        C  0.98739191  0.13371785  0.95292307     0.21600
C363        C  0.05572713  0.12781156  0.93406505    -0.53200
C364        C  0.03302473  0.12942471  0.95936797     0.10700
C365        C  0.00095388  0.07511057  0.90656471    -0.52800
C366        C  0.97828419  0.07562755  0.93193973     0.11300
H367        H  0.00586716  0.23076024  0.89063873     0.15800
H368        H  0.96924551  0.13500612  0.97373904     0.01600
H369        H  0.08842401  0.12590175  0.93480070     0.18100
H370        H  0.99901921  0.03732247  0.88972213     0.15900
O371        O  0.06015483  0.06562422  0.50492573    -0.77300
C372        C  0.17465548  0.00425212  0.55273927     0.83800
O373        O  0.01734744  0.03586572  0.60108323    -0.78400
O374        O  0.14326598  0.11350171  0.63670866    -0.79900
O375        O  0.14570933  0.23120704  0.53807708    -0.79700
O376        O  0.05874062  0.18654011  0.00137719    -0.78300
Zn377      Zn  0.08600011  0.04126365  0.54536254     1.55700
O378        O  0.18032244  0.19227505  0.57781451    -0.79700
Cd379      Cd  0.08816119  0.19547452  0.54478896     1.59700
Cd380      Cd  0.05129779  0.11974798  0.60246452     1.59600
O381        O  0.05171930  0.26400838  0.56504764    -0.79700
O382        O  0.09218954  0.11689034  0.57042327    -1.90200
Cd383      Cd  0.14597411  0.11527669  0.59059058     1.59900
O384        O  0.01957363  0.20589860  0.59974496    -0.79600
O385        O  0.17868403  0.03819227  0.57637264    -0.78300
C386        C  0.02270862  0.98277536  0.58720873     0.84200
C387        C  0.05128640  0.13172864  0.98977162     0.83900
O388        O  0.14176325  0.00270063  0.53735067    -0.77200
C389        C  0.17774451  0.22750479  0.55434766     0.84700
O390        O  0.04892772  0.97709664  0.56655035    -0.77300
C391        C  0.02536832  0.25875451  0.58555731     0.84800
C392        C  0.11380199  0.11637396  0.65460427     0.85200
O393        O  0.07754045  0.11964409  0.64507024    -0.79800
C394        C  0.16993976  0.11223238  0.73223005     0.87700
C395        C  0.19898308  0.16752197  0.74035991    -0.52500
C396        C  0.21169564  0.16664015  0.76983314     0.10600
C397        C  0.19465638  0.11132119  0.78837825     0.21600
C398        C  0.19298710  0.05091629  0.74144133    -0.53200
C399        C  0.20627534  0.05112984  0.77072284     0.10700
C400        C  0.13564755  0.11738391  0.75514386    -0.52800
C401        C  0.14903381  0.11672291  0.78432593     0.11300
H402        H  0.20933837  0.20297582  0.72416113     0.15800
H403        H  0.20533793  0.11073924  0.81231521     0.01600
H404        H  0.20094818  0.01334647  0.72562532     0.16100
H405        H  0.10386208  0.12102969  0.74960691     0.15900
O406        O  0.34658530  0.25013059  0.77505345    -0.77300
C407        C  0.42659789  0.37629207  0.73286053     0.83800
O408        O  0.46281539  0.28324878  0.84552643    -0.78400
O409        O  0.43658727  0.51114274  0.80873760    -0.79900
O410        O  0.29916082  0.43901664  0.81350276    -0.79700
O411        O  0.30309869  0.28616670  0.80879589    -0.78300
Zn412      Zn  0.39930483  0.29373512  0.78580175     1.55700
O413        O  0.34013737  0.49672825  0.78448013    -0.79700
Cd414      Cd  0.33366729  0.36195382  0.82795992     1.59700
Cd415      Cd  0.42876016  0.36763333  0.84611913     1.59600
O416        O  0.33356665  0.35737450  0.87504948    -0.79700
O417        O  0.38945783  0.36763570  0.81164278    -1.90200
Cd418      Cd  0.39524082  0.44944939  0.78799103     1.59900
O419        O  0.39886394  0.36684180  0.88678968    -0.79600
O420        O  0.41589823  0.42909281  0.74493548    -0.78300
C421        C  0.46087182  0.23267439  0.82920793     0.84200
C422        C  0.31156438  0.25096278  0.78631072     0.83900
O423        O  0.42350531  0.32233954  0.74638154    -0.77200
C424        C  0.30576476  0.48626009  0.79591477     0.84700
O425        O  0.43721317  0.22923515  0.80627207    -0.77300
C426        C  0.36224559  0.36172233  0.89453386     0.84800
C427        C  0.46138578  0.50404394  0.83082982     0.85200
O428        O  0.46348578  0.45159265  0.84602094    -0.79800
C429        C  0.30599789  0.36250303  0.97165861     0.87700
C430        C  0.27994642  0.30564789  0.98218224    -0.52500
C431        C  0.25921916  0.30589352  0.50670152     0.10600
C432        C  0.27712025  0.36265654  0.52451628     0.21600
C433        C  0.28013609  0.42251312  0.97784914    -0.53200
C434        C  0.26626827  0.42107337  0.50488956     0.10700
C435        C  0.33663306  0.35094981  0.49359416    -0.52800
C436        C  0.32300636  0.35582111  0.52241730     0.11300
H437        H  0.27051520  0.26668506  0.96739666     0.15800
H438        H  0.26648713  0.36767068  0.54798504     0.01600
H439        H  0.27133381  0.45724684  0.96054739     0.16100
H440        H  0.36834789  0.34661248  0.48840148     0.15900
C441        C  0.35379064  0.36190136  0.92724992    -0.15200
C442        C  0.31637641  0.35790358  0.93835255    -0.30400
H443        H  0.37962759  0.36760449  0.94221003     0.13800
H444        H  0.29107364  0.35344216  0.92258420     0.14400
C445        C  0.24210899  0.21037827  0.78270388    -0.15200
C446        C  0.27974847  0.21135965  0.77220547    -0.30400
H447        H  0.23463357  0.23620807  0.80311524     0.13800
H448        H  0.28730011  0.18224496  0.75276698     0.14400
C449        C  0.23707699  0.00609697  0.78187413    -0.15200
C450        C  0.27432162  0.02794802  0.78767205    -0.30400
H451        H  0.23045378  0.95490806  0.78249216     0.13800
H452        H  0.28156121  0.07816918  0.78379349     0.14400
C453        C  0.12149800  0.11610653  0.68738653    -0.15200
C454        C  0.15909400  0.11243045  0.69899459    -0.30400
H455        H  0.09551990  0.11906813  0.70167666     0.13800
H456        H  0.18430771  0.10921123  0.68374012     0.14400
C457        C  0.22438485  0.26757959  0.51672147    -0.15200
C458        C  0.21357235  0.26373456  0.54568764    -0.30400
H459        H  0.20657667  0.24261267  0.49960210     0.13800
H460        H  0.23276024  0.28274086  0.56356629     0.14400
C461        C  0.23730291  0.46974145  0.51505744    -0.15200
C462        C  0.19962229  0.45216841  0.52209793    -0.30400
H463        H  0.24694728  0.51947890  0.51702983     0.13800
H464        H  0.18944890  0.40336960  0.51772443     0.14400
C465        C  0.05511520  0.12932010  0.87772613    -0.17300
C466        C  0.07574330  0.12691514  0.85578717     0.06800
C467        C  0.10058342  0.12345484  0.83057281     0.08600
C468        C  0.12240052  0.12040167  0.80932827    -0.18100
C469        C  0.41577470  0.37559679  0.62005993    -0.17300
C470        C  0.39483050  0.37136351  0.59753970     0.06800
C471        C  0.37051665  0.36462405  0.57110305     0.08600
C472        C  0.34946058  0.35933821  0.54869521    -0.18100
C473        C  0.85537512  0.37305359  0.83798334    -0.15200
C474        C  0.81790570  0.37087993  0.82599475    -0.30400
H475        H  0.88149836  0.37501864  0.82380982     0.13800
H476        H  0.79242032  0.37050907  0.84105418     0.14400
C477        C  0.73800440  0.03305384  0.00501167    -0.15200
C478        C  0.77724459  0.04842436  0.00480645    -0.30400
H479        H  0.72560663  0.00268285  0.48395595     0.13800
H480        H  0.78742455  0.09335184  0.01472462     0.14400
C481        C  0.74570008  0.24182914  0.00220298    -0.15200
C482        C  0.77586737  0.22209738  0.98462084    -0.30400
H483        H  0.74875300  0.29587537  0.50117005     0.13800
H484        H  0.77757890  0.17295107  0.97668949     0.14400
C485        C  0.63070442  0.12850069  0.58858312    -0.15200
C486        C  0.66115920  0.16308592  0.57750344    -0.30400
H487        H  0.61323866  0.09711519  0.57381675     0.13800
H488        H  0.67700245  0.19691661  0.59211646     0.14400
C489        C  0.70436497  0.45761573  0.73372449    -0.15200
C490        C  0.74072148  0.47913779  0.74262547    -0.30400
H491        H  0.73099153  0.95478288  0.70613193     0.13800
H492        H  0.74694898  0.53041508  0.74364891     0.14400
C493        C  0.69942036  0.27626232  0.74800575    -0.15200
C494        C  0.73807996  0.27441337  0.73981923    -0.30400
H495        H  0.69065439  0.30580077  0.76701737     0.13800
H496        H  0.74695377  0.24791073  0.71992240     0.14400
C497        C  0.63238755  0.13832033  0.96121217    -0.17300
C498        C  0.61297724  0.13221170  0.93827865     0.06800
C499        C  0.58858928  0.12465552  0.91232613     0.08600
C500        C  0.56667200  0.11984003  0.89060057    -0.18100
C501        C  0.85710885  0.37099024  0.71560711    -0.17300
C502        C  0.87868767  0.37195114  0.69407053     0.06800
C503        C  0.90311211  0.37372980  0.66840970     0.08600
C504        C  0.92380871  0.37496120  0.64637524    -0.18100
C505        C  0.95092938  0.87480082  0.12211932     0.87700
C506        C  0.97652868  0.93590093  0.11952727    -0.52500
C507        C  0.99926606  0.93840031  0.09407837     0.10600
C508        C  0.99447653  0.87826171  0.07395187     0.21600
C509        C  0.92612812  0.87239251  0.09271848    -0.53200
C510        C  0.94897365  0.87437709  0.06751608     0.10700
C511        C  0.98055437  0.81844281  0.12022210    -0.52800
C512        C  0.00328765  0.81953295  0.09479232     0.11300
H513        H  0.97577800  0.97453165  0.13596130     0.15800
H514        H  0.01254029  0.87993112  0.05309393     0.01600
H515        H  0.89342443  0.87099857  0.09184265     0.16100
H516        H  0.98226590  0.78000175  0.13690352     0.15900
C517        C  0.53196531  0.63674491  0.36823947     0.87700
C518        C  0.50470166  0.57804022  0.36483937    -0.52500
C519        C  0.48219464  0.57793216  0.33878412     0.10600
C520        C  0.48856235  0.63825568  0.31881544     0.21600
C521        C  0.55705211  0.63805556  0.33946370    -0.53200
C522        C  0.53402890  0.63910719  0.31360408     0.10700
C523        C  0.50408598  0.69528627  0.36552630    -0.52800
C524        C  0.48165712  0.69698589  0.33932435     0.11300
H525        H  0.50419711  0.53901804  0.38124771     0.15800
H526        H  0.47040783  0.63879973  0.29751320     0.01600
H527        H  0.58974872  0.63854969  0.33948313     0.16100
H528        H  0.50351557  0.73332974  0.38226250     0.15900
O529        O  0.55336237  0.69549237  0.26989372    -0.77300
C530        C  0.66851065  0.76279495  0.23582603     0.83800
O531        O  0.51628901  0.73359171  0.17104639    -0.78400
O532        O  0.64782062  0.66427039  0.14455679    -0.79900
O533        O  0.63954769  0.52300867  0.23456834    -0.79700
O534        O  0.56321394  0.58913837  0.27174527    -0.78300
Zn535      Zn  0.57964951  0.72493368  0.23138990     1.55700
O536        O  0.68034148  0.57789547  0.20441436    -0.79700
Cd537      Cd  0.58489492  0.56944236  0.22941093     1.59700
Cd538      Cd  0.55180805  0.65047486  0.17083221     1.59600
O539        O  0.54585820  0.50604668  0.20811194    -0.79700
O540        O  0.59040713  0.65111383  0.20592364    -1.90200
Cd541      Cd  0.64678557  0.65638698  0.19126771     1.59900
O542        O  0.52004466  0.56262274  0.16938396    -0.79600
O543        O  0.67816795  0.72766702  0.21358379    -0.78300
C544        C  0.51932181  0.78547354  0.18637027     0.84200
C545        C  0.55114980  0.64140243  0.28344137     0.83900
O546        O  0.63229936  0.76674670  0.24469409    -0.77200
C547        C  0.67377079  0.53222027  0.22284796     0.84700
O548        O  0.54318379  0.78966000  0.20922224    -0.77300
C549        C  0.52257128  0.51067214  0.18505380     0.84800
C550        C  0.61987456  0.66321045  0.12439219     0.85200
O551        O  0.58282552  0.65828370  0.13087987    -0.79800
C552        C  0.67258985  0.62992398  0.04925064     0.87700
C553        C  0.70378658  0.57727184  0.04270153    -0.52500
C554        C  0.71792854  0.57867668  0.01400874     0.10600
C555        C  0.69325857  0.62060991  0.48812474     0.21600
C556        C  0.69378169  0.69306942  0.04094993    -0.53200
C557        C  0.70815762  0.69347333  0.01232860     0.10700
C558        C  0.63927629  0.62120280  0.02496961    -0.52800
C559        C  0.64804498  0.61504437  0.49331874     0.11300
H560        H  0.71535284  0.54399096  0.05974680     0.15800
H561        H  0.70156395  0.62608187  0.46402861     0.01600
H562        H  0.69987050  0.73138512  0.05699735     0.16100
H563        H  0.60763254  0.61537714  0.03006937     0.15900
O564        O  0.91979263  0.82689075  0.02407234    -0.77300
C565        C  0.80521459  0.75677693  0.48559569     0.83800
O566        O  0.94927990  0.79600247  0.42077326    -0.78400
O567        O  0.81211081  0.88444797  0.40579743    -0.79900
O568        O  0.84343826  0.00315353  0.50003441    -0.79700
O569        O  0.92491913  0.93381001  0.02572618    -0.78300
Zn570      Zn  0.89340243  0.79715189  0.48401603     1.55700
O571        O  0.79479725  0.95845392  0.47202360    -0.79700
Cd572      Cd  0.89477890  0.95327294  0.48762791     1.59700
Cd573      Cd  0.91310881  0.87942968  0.42373387     1.59600
O574        O  0.93319807  0.01579708  0.46593923    -0.79700
O575        O  0.88153078  0.87675333  0.46188375    -1.90200
Cd576      Cd  0.82270146  0.88165903  0.45182743     1.59900
O577        O  0.94850859  0.96350383  0.42366344    -0.79600
O578        O  0.79323568  0.80416090  0.46955145    -0.78300
C579        C  0.95203279  0.74543936  0.43737312     0.84200
C580        C  0.93073823  0.87839991  0.03728988     0.83900
O581        O  0.84225845  0.74795517  0.49230185    -0.77200
C582        C  0.80669702  0.99936873  0.49151401     0.84700
O583        O  0.93176510  0.73966232  0.46139134    -0.77300
C584        C  0.95233152  0.01192400  0.44133871     0.84800
C585        C  0.83516364  0.88358485  0.38313793     0.85200
O586        O  0.87356630  0.88172255  0.38614788    -0.79800
C587        C  0.81695644  0.88275820  0.29614610     0.87700
C588        C  0.79223905  0.94416976  0.28945638    -0.52500
C589        C  0.77462762  0.94490115  0.26133098     0.10600
C590        C  0.78463147  0.88592802  0.24210641     0.21600
C591        C  0.78751212  0.82668554  0.28963993    -0.53200
C592        C  0.77058360  0.82916471  0.26125089     0.10700
C593        C  0.84765470  0.87972670  0.27073590    -0.52800
C594        C  0.83073653  0.88142033  0.24259486     0.11300
H595        H  0.78728703  0.98167204  0.30598717     0.15800
H596        H  0.77107263  0.88714713  0.21898499     0.01600
H597        H  0.78017947  0.78968917  0.30602791     0.16100
H598        H  0.87999789  0.87644478  0.27461615     0.15900
C599        C  0.44626474  0.90585218  0.14765041     0.87700
C600        C  0.47183416  0.84455649  0.15121992    -0.52500
C601        C  0.49455356  0.84236903  0.17730252     0.10600
C602        C  0.48987552  0.90297090  0.19700942     0.21600
C603        C  0.42143126  0.90900921  0.17654040    -0.53200
C604        C  0.44436681  0.90696478  0.20241721     0.10700
C605        C  0.47608218  0.96193854  0.15015432    -0.52800
C606        C  0.49891261  0.96125672  0.17613051     0.11300
H607        H  0.47119886  0.80572337  0.13487818     0.15800
H608        H  0.50806678  0.90170108  0.21828312     0.01600
H609        H  0.38874663  0.91060582  0.17656524     0.16100
H610        H  0.47819987  0.99963711  0.13318564     0.15900
C611        C  0.03243695  0.63694667  0.40166820     0.87700
C612        C  0.00342576  0.69416497  0.40407431    -0.52500
C613        C  0.97997292  0.69229032  0.42914253     0.10600
C614        C  0.98777724  0.63191073  0.44917106     0.21600
C615        C  0.05662677  0.63641352  0.43143667    -0.53200
C616        C  0.03318584  0.63336760  0.45633261     0.10700
C617        C  0.00604028  0.57656422  0.40291569    -0.52800
C618        C  0.98282137  0.57321467  0.42801230     0.11300
H619        H  0.00239859  0.73344820  0.38781187     0.15800
H620        H  0.96919535  0.62969466  0.46975376     0.01600
H621        H  0.08932126  0.63743985  0.43274543     0.18100
H622        H  0.00685835  0.53877199  0.38606096     0.15900
O623        O  0.05584049  0.58599577  0.99874741    -0.77300
C624        C  0.17161069  0.51073248  0.03121107     0.83800
O625        O  0.03227736  0.54810127  0.10155222    -0.78400
O626        O  0.17001655  0.62728655  0.11704076    -0.79900
O627        O  0.13967011  0.76312931  0.03011050    -0.79700
O628        O  0.05960723  0.68273052  0.50009525    -0.78300
Zn629      Zn  0.08453750  0.55689307  0.03692333     1.55700
O630        O  0.18801605  0.70473292  0.05250273    -0.79700
Cd631      Cd  0.08777236  0.71259502  0.03895248     1.59700
Cd632      Cd  0.06853164  0.63130205  0.10021192     1.59600
O633        O  0.05025208  0.77244977  0.06216743    -0.79700
O634        O  0.09928796  0.63105222  0.06170476    -1.90200
Cd635      Cd  0.15836226  0.62796506  0.07099769     1.59900
O636        O  0.03327999  0.71551730  0.10281895    -0.79600
O637        O  0.18509993  0.55133378  0.05026186    -0.78300
C638        C  0.02786445  0.50024166  0.08360787     0.84200
C639        C  0.05057571  0.63029089  0.48698645     0.83900
O640        O  0.13428940  0.50750616  0.02418189    -0.77200
C641        C  0.17651919  0.75286828  0.03679147     0.84700
O642        O  0.04675454  0.49705658  0.05886441    -0.77300
C643        C  0.03062199  0.76630120  0.08638414     0.84800
C644        C  0.14731539  0.62986734  0.13990210     0.85200
O645        O  0.10888809  0.63142504  0.13721282    -0.79800
C646        C  0.16564548  0.63506966  0.22686852     0.87700
C647        C  0.19505241  0.69127796  0.23321230    -0.52500
C648        C  0.21152952  0.68972669  0.26177249     0.10600
C649        C  0.19734744  0.63335659  0.28110342     0.21600
C650        C  0.19031540  0.57387991  0.23401596    -0.53200
C651        C  0.20754315  0.57393719  0.26225862     0.10700
C652        C  0.13465796  0.63863805  0.25213461    -0.52800
C653        C  0.15132681  0.63750871  0.28037059     0.11300
H654        H  0.20228300  0.72817666  0.21674897     0.15800
H655        H  0.21072617  0.63260621  0.30429078     0.01600
H656        H  0.19568023  0.53613998  0.21767811     0.16100
H657        H  0.10234016  0.64127225  0.24809544     0.15900
O658        O  0.34698315  0.77328608  0.27093680    -0.77300
C659        C  0.42685699  0.90315604  0.23265078     0.83800
O660        O  0.45852339  0.80397582  0.34673996    -0.78400
O661        O  0.43415300  0.03168695  0.30866465    -0.79900
O662        O  0.29783323  0.95545927  0.31384726    -0.79700
O663        O  0.30232133  0.80401881  0.30495669    -0.78300
Zn664      Zn  0.39931701  0.81656986  0.28425535     1.55700
O665        O  0.33819196  0.01737111  0.28617532    -0.79700
Cd666      Cd  0.33217204  0.87793472  0.32670568     1.59700
Cd667      Cd  0.42588959  0.88906393  0.34582370     1.59600
O668        O  0.33130886  0.87100882  0.37386453    -0.79700
O669        O  0.38775192  0.88805771  0.31080414    -1.90200
Cd670      Cd  0.39290833  0.97069954  0.28796122     1.59900
O671        O  0.39557534  0.89014521  0.38600008    -0.79600
O672        O  0.41260537  0.95399763  0.24440930    -0.78300
C673        C  0.45700714  0.75365200  0.33029776     0.84200
C674        C  0.31155798  0.77196457  0.28158792     0.83900
O675        O  0.42634109  0.84882913  0.24618381    -0.77200
C676        C  0.30409551  0.00465189  0.29743862     0.84700
O677        O  0.43533083  0.75130573  0.30622402    -0.77300
C678        C  0.35931093  0.88039881  0.39351877     0.84800
C679        C  0.45883255  0.02446289  0.33076360     0.85200
O680        O  0.46099744  0.97203520  0.34590633    -0.79800
C681        C  0.30317883  0.87349501  0.47049383     0.87700
C682        C  0.28374737  0.80985563  0.48040093    -0.52500
C683        C  0.27277202  0.82946604  0.00886347     0.10600
C684        C  0.28038679  0.89190786  0.02626435     0.21600
C685        C  0.27095234  0.92488248  0.47687151    -0.53200
C686        C  0.25868262  0.94330169  0.00675914     0.10700
C687        C  0.33839765  0.90758467  0.99410662    -0.52800
C688        C  0.32568009  0.90500379  0.02320452     0.11300
H689        H  0.27785976  0.77002435  0.46514044     0.15800
H690        H  0.27080519  0.88841009  0.05004647     0.01600
H691        H  0.25804764  0.95585130  0.45940900     0.16100
H692        H  0.36963945  0.91545937  0.98827705     0.15900
C693        C  0.35068548  0.88080234  0.42617839    -0.15200
C694        C  0.31363745  0.87214694  0.43718407    -0.30400
H695        H  0.37609313  0.88936778  0.44123157     0.13800
H696        H  0.28878295  0.86366703  0.42140228     0.14400
C697        C  0.24138674  0.73586742  0.27376523    -0.15200
C698        C  0.28033684  0.73274109  0.26613571    -0.30400
H699        H  0.23215566  0.76644378  0.29222174     0.13800
H700        H  0.28945305  0.70014727  0.24837806     0.14400
C701        C  0.23817654  0.52665090  0.27208399    -0.15200
C702        C  0.27337772  0.54706492  0.28379950    -0.30400
H703        H  0.23335997  0.47585474  0.26747658     0.13800
H704        H  0.27982837  0.59822316  0.28516971     0.14400
C705        C  0.16687074  0.63114265  0.17023943    -0.15200
C706        C  0.14584167  0.63572209  0.19577362    -0.30400
H707        H  0.19951476  0.62804347  0.17169046     0.13800
H708        H  0.11321210  0.63902375  0.19425469     0.14400
C709        C  0.24436075  0.78079590  0.01974360    -0.15200
C710        C  0.20658007  0.79860430  0.02605953    -0.30400
H711        H  0.25359045  0.73067646  0.02103036     0.13800
H712        H  0.19685727  0.84778644  0.02182671     0.14400
C713        C  0.22234989  0.97979549  0.01602688    -0.15200
C714        C  0.20955194  0.98173523  0.04463635    -0.30400
H715        H  0.20544192  0.00581997  0.99865999     0.13800
H716        H  0.22743364  0.96097649  0.06286082     0.14400
C717        C  0.05819314  0.63931526  0.37512688    -0.17300
C718        C  0.08017719  0.63990133  0.35377272     0.06800
C719        C  0.10596423  0.63966740  0.32881192     0.08600
C720        C  0.12728383  0.63898126  0.30709248    -0.18100
C721        C  0.42141603  0.90727219  0.11970744    -0.17300
C722        C  0.40050754  0.90831162  0.09706186     0.06800
C723        C  0.37522249  0.90907448  0.07091482     0.08600
C724        C  0.35300505  0.90858581  0.04898255    -0.18100
C725        C  0.81591745  0.88458627  0.35271071    -0.15200
C726        C  0.83695368  0.88119157  0.32716743    -0.30400
H727        H  0.78325696  0.88793175  0.35121516     0.13800
H728        H  0.86960029  0.87766554  0.32864534     0.14400
C729        C  0.74193933  0.52224992  0.48825512    -0.15200
C730        C  0.78026099  0.52290786  0.49809427    -0.30400
H731        H  0.77175401  0.51876656  0.02330431     0.13800
H732        H  0.78825843  0.54948348  0.51842640     0.14400
C733        C  0.73586798  0.72469343  0.49709428    -0.15200
C734        C  0.77540127  0.71113921  0.49716063    -0.30400
H735        H  0.72930944  0.79116596  0.00081960     0.13800
H736        H  0.78615584  0.66600388  0.50677364     0.14400
C737        C  0.63059534  0.66649473  0.09235427    -0.15200
C738        C  0.65931090  0.62794616  0.08164926    -0.30400
H739        H  0.61344978  0.69767239  0.07715263     0.13800
H740        H  0.67412888  0.59419395  0.09705387     0.14400
C741        C  0.70988434  0.97579238  0.23825085    -0.15200
C742        C  0.74456687  0.99360784  0.25181346    -0.30400
H743        H  0.70095666  0.43865444  0.23415586     0.13800
H744        H  0.74940981  0.04360180  0.25804332     0.14400
C745        C  0.70017136  0.79917181  0.25212814    -0.15200
C746        C  0.73945033  0.78478900  0.24969740    -0.30400
H747        H  0.69110088  0.83843716  0.26669147     0.13800
H748        H  0.74901508  0.74506388  0.23563538     0.14400
C749        C  0.61918695  0.61944262  0.46878889    -0.17300
C750        C  0.59787526  0.62473021  0.44664035     0.06800
C751        C  0.57504935  0.63107873  0.41964985     0.08600
C752        C  0.55602109  0.63510821  0.39630974    -0.18100
C753        C  0.85472788  0.87854444  0.21586447    -0.17300
C754        C  0.87663477  0.87612371  0.19450308     0.06800
C755        C  0.90324368  0.87401925  0.17004963     0.08600
C756        C  0.92559169  0.87347576  0.14890826    -0.18100
C757        C  0.94814829  0.86439107  0.62312166     0.87700
C758        C  0.97436743  0.92488201  0.62061735    -0.52500
C759        C  0.99758441  0.92641686  0.59537726     0.10600
C760        C  0.99253338  0.86627737  0.57536455     0.21600
C761        C  0.92384451  0.86229922  0.59350435    -0.53200
C762        C  0.94711078  0.86347172  0.56853650     0.10700
C763        C  0.97738435  0.80730540  0.62162336    -0.52800
C764        C  0.00061702  0.80769933  0.59642031     0.11300
H765        H  0.97374649  0.96371641  0.63694803     0.15800
H766        H  0.01092029  0.86735650  0.55466112     0.01600
H767        H  0.89113539  0.86181992  0.59231056     0.16100
H768        H  0.97862788  0.76913732  0.63844920     0.15900
C769        C  0.53922447  0.61748323  0.86801195     0.87700
C770        C  0.51203836  0.55820054  0.86476700    -0.52500
C771        C  0.48843667  0.55839895  0.83913336     0.10600
C772        C  0.49411421  0.61909319  0.81931463     0.21600
C773        C  0.56327169  0.61979563  0.83868580    -0.53200
C774        C  0.53944714  0.62076634  0.81319772     0.10700
C775        C  0.51078733  0.67559035  0.86595768    -0.52800
C776        C  0.48734541  0.67720594  0.84025470     0.11300
H777        H  0.51199464  0.51907828  0.88111777     0.15800
H778        H  0.47526963  0.61976859  0.79834813     0.01600
H779        H  0.59593956  0.62033044  0.83809292     0.16100
H780        H  0.51024365  0.71316026  0.88292576     0.15900
O781        O  0.56134785  0.67519626  0.76933263    -0.77300
C782        C  0.67208654  0.74279697  0.72810185     0.83800
O783        O  0.51985688  0.70941611  0.66794390    -0.78400
O784        O  0.65307853  0.62820972  0.64275995    -0.79900
O785        O  0.63724394  0.49425143  0.73391598    -0.79700
O786        O  0.56287438  0.56775672  0.76996631    -0.78300
Zn787      Zn  0.58357061  0.70177465  0.72858100     1.55700
O788        O  0.68150662  0.54757900  0.70598338    -0.79700
Cd789      Cd  0.58424524  0.54533903  0.72772054     1.59700
Cd790      Cd  0.55552610  0.62650492  0.66795009     1.59600
O791        O  0.54319267  0.48506002  0.70645061    -0.79700
O792        O  0.59313576  0.62590556  0.70377085    -1.90200
Cd793      Cd  0.65023287  0.62560211  0.68973878     1.59900
O794        O  0.52148522  0.54101998  0.66621774    -0.79600
O795        O  0.68228336  0.69989016  0.70930450    -0.78300
C796        C  0.52084471  0.75972202  0.68444782     0.84200
C797        C  0.55557965  0.62139303  0.78254170     0.83900
O798        O  0.63592286  0.74919284  0.73675564    -0.77200
C799        C  0.67258652  0.50206095  0.72388387     0.84700
O800        O  0.54406893  0.76342094  0.70764265    -0.77300
C801        C  0.52109571  0.49029091  0.68276538     0.84800
C802        C  0.62548985  0.63257698  0.62241311     0.85200
O803        O  0.58820547  0.63334843  0.62866340    -0.79800
C804        C  0.67446632  0.60824147  0.54472525     0.87700
C805        C  0.70226652  0.55464602  0.53325421    -0.52500
C806        C  0.71176195  0.56147551  0.50350048     0.10600
C807        C  0.69911734  0.63228877  0.99432667     0.21600
C808        C  0.69722206  0.67078296  0.53763325    -0.53200
C809        C  0.70727160  0.67653432  0.50800324     0.10700
C810        C  0.63784885  0.60785465  0.52283087    -0.52800
C811        C  0.65335167  0.62303390  0.99615232     0.11300
H812        H  0.71440402  0.51629258  0.54745597     0.15800
H813        H  0.71021469  0.63511186  0.97088656     0.01600
H814        H  0.70675992  0.70509680  0.55474401     0.16100
H815        H  0.60688121  0.60339625  0.53001433     0.15900
O816        O  0.91948011  0.81671238  0.52442373    -0.77300
C817        C  0.80552749  0.76674747  0.98523690     0.83800
O818        O  0.94867886  0.80515593  0.92029406    -0.78400
O819        O  0.81170681  0.88933341  0.90520636    -0.79900
O820        O  0.84385592  0.01052135  0.99977273    -0.79700
O821        O  0.92305454  0.92377454  0.52704416    -0.78300
Zn822      Zn  0.89323343  0.80719696  0.98379480     1.55700
O823        O  0.79555593  0.96602572  0.97127747    -0.79700
Cd824      Cd  0.89520124  0.96216008  0.98671119     1.59700
Cd825      Cd  0.91255499  0.88838180  0.92255196     1.59600
O826        O  0.93208262  0.02538960  0.96447967    -0.79700
O827        O  0.88179020  0.88584819  0.96105581    -1.90200
Cd828      Cd  0.82325574  0.89017816  0.95102274     1.59900
O829        O  0.94707526  0.97369968  0.92193368    -0.79600
O830        O  0.79374532  0.81428297  0.96932961    -0.78300
C831        C  0.95070331  0.75477644  0.93705165     0.84200
C832        C  0.92940225  0.86809001  0.53818122     0.83900
O833        O  0.84246590  0.75739777  0.99197608    -0.77200
C834        C  0.80717925  0.00596971  0.99123854     0.84700
O835        O  0.93055071  0.74981000  0.96110888    -0.77300
C836        C  0.95071607  0.02212506  0.93967684     0.84800
C837        C  0.83424301  0.88647297  0.88231730     0.85200
O838        O  0.87271074  0.88630101  0.88493192    -0.79800
C839        C  0.81296729  0.87525071  0.79568332     0.87700
C840        C  0.78408906  0.93201313  0.78902651    -0.52500
C841        C  0.76558794  0.92951912  0.76117548     0.10600
C842        C  0.77886688  0.87154951  0.74226988     0.21600
C843        C  0.78695144  0.81459014  0.79021621    -0.53200
C844        C  0.76852357  0.81374564  0.76228118     0.10700
C845        C  0.84279296  0.87587912  0.76973227    -0.52800
C846        C  0.82503869  0.87368940  0.74193966     0.11300
H847        H  0.77691438  0.96838810  0.80563728     0.15800
H848        H  0.76512324  0.86834782  0.71934781     0.01600
H849        H  0.78189726  0.77796327  0.80728587     0.16100
H850        H  0.87528251  0.87695284  0.77301724     0.15900
C851        C  0.44284370  0.87656541  0.64890427     0.87700
C852        C  0.47029774  0.81710592  0.65106449    -0.52500
C853        C  0.49418090  0.81515637  0.67660730     0.10600
C854        C  0.48864174  0.87412547  0.69727638     0.21600
C855        C  0.41923526  0.87624348  0.67838817    -0.53200
C856        C  0.44330664  0.87466231  0.70370716     0.10700
C857        C  0.47110131  0.93448544  0.65158463    -0.52800
C858        C  0.49510165  0.93393440  0.67699044     0.11300
H859        H  0.47008647  0.77926903  0.63422150     0.15800
H860        H  0.50775968  0.87333063  0.71810201     0.01600
H861        H  0.38657625  0.87678603  0.67920959     0.16100
H862        H  0.47147120  0.97322489  0.63503055     0.15900
C863        C  0.02832691  0.64181108  0.90162068     0.87700
C864        C  0.00027515  0.70018959  0.90359308    -0.52500
C865        C  0.97747538  0.70049161  0.92900911     0.10600
C866        C  0.98472785  0.64109060  0.94975883     0.21600
C867        C  0.05315702  0.64225525  0.93096162    -0.53200
C868        C  0.03035409  0.64169513  0.95614453     0.10700
C869        C  0.00110509  0.58262755  0.90403015    -0.52800
C870        C  0.97826494  0.58156969  0.92942519     0.11300
H871        H  0.99944263  0.73859226  0.88687295     0.15800
H872        H  0.96664173  0.64057507  0.97061671     0.01600
H873        H  0.08587764  0.64232733  0.93182324     0.18100
H874        H  0.00086957  0.54409103  0.88752675     0.15900
O875        O  0.05747285  0.57552184  0.49912610    -0.77300
C876        C  0.17104799  0.49789266  0.53514123     0.83800
O877        O  0.03142060  0.53612048  0.60376244    -0.78400
O878        O  0.16752866  0.61198869  0.62022959    -0.79900
O879        O  0.13847590  0.75021430  0.53339649    -0.79700
O880        O  0.05948247  0.69317863  0.99831192    -0.78300
Zn881      Zn  0.08402520  0.54592329  0.53861232     1.55700
O882        O  0.18628072  0.69187474  0.55659920    -0.79700
Cd883      Cd  0.08631010  0.70076323  0.54150527     1.59700
Cd884      Cd  0.06668120  0.61990845  0.60264548     1.59600
O885        O  0.04831193  0.76050248  0.56442169    -0.79700
O886        O  0.09775696  0.61924537  0.56416245    -1.90200
Cd887      Cd  0.15653650  0.61519582  0.57425113     1.59900
O888        O  0.03086994  0.70385848  0.60504321    -0.79600
O889        O  0.18433478  0.53988099  0.55350788    -0.78300
C890        C  0.02766929  0.48874781  0.58550206     0.84200
C891        C  0.04890141  0.64026944  0.98627767     0.83900
O892        O  0.13382656  0.49417113  0.52789359    -0.77200
C893        C  0.17510908  0.73956872  0.54052464     0.84700
O894        O  0.04608733  0.48711307  0.56051965    -0.77300
C895        C  0.02827567  0.75446227  0.58846565     0.84800
C896        C  0.14473711  0.61494953  0.64299645     0.85200
O897        O  0.10638610  0.61869199  0.64014694    -0.79800
C898        C  0.16402925  0.61790520  0.72986912     0.87700
C899        C  0.19291218  0.67502931  0.73564803    -0.52500
C900        C  0.21018205  0.67430669  0.76393755     0.10600
C901        C  0.19702603  0.61797309  0.78371546     0.21600
C902        C  0.18947349  0.55741237  0.73699713    -0.53200
C903        C  0.20751890  0.55834845  0.76500819     0.10700
C904        C  0.13363099  0.62132620  0.75541106    -0.52800
C905        C  0.15089296  0.62142461  0.78342347     0.11300
H906        H  0.19951831  0.71165365  0.71889496     0.15800
H907        H  0.21074608  0.61831195  0.80678415     0.01600
H908        H  0.19470250  0.51947493  0.72074027     0.16100
H909        H  0.10124899  0.62424453  0.75171681     0.15900
O910        O  0.34695134  0.74635680  0.77686424    -0.77300
C911        C  0.42706444  0.87315391  0.73433375     0.83800
O912        O  0.46210835  0.78306318  0.84861307    -0.78400
O913        O  0.43619835  0.00755909  0.80892366    -0.79900
O914        O  0.29977825  0.93705711  0.81330439    -0.79700
O915        O  0.30180390  0.78507740  0.80871237    -0.78300
Zn916      Zn  0.39955405  0.79115862  0.78765918     1.55700
O917        O  0.34164736  0.99436578  0.78496859    -0.79700
Cd918      Cd  0.33291072  0.86029743  0.82842841     1.59700
Cd919      Cd  0.42733397  0.86670620  0.84860190     1.59600
O920        O  0.33126183  0.86016268  0.87538279    -0.79700
O921        O  0.38917492  0.86506346  0.81324347    -1.90200
Cd922      Cd  0.39545088  0.94573383  0.78899126     1.59900
O923        O  0.39625788  0.86438107  0.88897955    -0.79600
O924        O  0.41592359  0.92577929  0.74619137    -0.78300
C925        C  0.46080528  0.73247944  0.83227544     0.84200
C926        C  0.31124108  0.74851969  0.78690833     0.83900
O927        O  0.42427136  0.81930626  0.74804231    -0.77200
C928        C  0.30707373  0.98419378  0.79589853     0.84700
O929        O  0.43765465  0.72853802  0.80905071    -0.77300
C930        C  0.35908983  0.86238899  0.89559825     0.84800
C931        C  0.46001447  0.00271567  0.83161447     0.85200
O932        O  0.46144941  0.95194545  0.84813120    -0.79800
C933        C  0.30462443  0.89521907  0.97067008     0.87700
C934        C  0.28598988  0.83046863  0.97988197    -0.52500
C935        C  0.27038755  0.81074076  0.50930124     0.10600
C936        C  0.27845288  0.87370167  0.52602689     0.21600
C937        C  0.27183303  0.94526451  0.97768450    -0.53200
C938        C  0.25752432  0.92469954  0.50587187     0.10700
C939        C  0.33702975  0.88549553  0.49431132    -0.52800
C940        C  0.32378839  0.88504979  0.52330943     0.11300
H941        H  0.28044027  0.79140012  0.96414439     0.15800
H942        H  0.26859238  0.87137489  0.54976419     0.01600
H943        H  0.25865185  0.97711461  0.96070214     0.16100
H944        H  0.36865865  0.89126057  0.48943819     0.15900
C945        C  0.34828123  0.86201470  0.92778710    -0.15200
C946        C  0.31726814  0.89684476  0.93797204    -0.30400
H947        H  0.36707695  0.83485252  0.94360619     0.13800
H948        H  0.30037493  0.92709162  0.92216084     0.14400
C949        C  0.24053501  0.72073641  0.77486033    -0.15200
C950        C  0.28002102  0.70800898  0.77244495    -0.30400
H951        H  0.23032286  0.76185480  0.78769754     0.13800
H952        H  0.28961876  0.66740102  0.75896181     0.14400
C953        C  0.23879824  0.51126679  0.77449623    -0.15200
C954        C  0.27266091  0.53080535  0.78876631    -0.30400
H955        H  0.23585673  0.46153559  0.76730597     0.13800
H956        H  0.27753780  0.58132550  0.79344064     0.14400
C957        C  0.16430833  0.61435697  0.67331897    -0.15200
C958        C  0.14356965  0.61802091  0.69899390    -0.30400
H959        H  0.19695130  0.61119196  0.67461978     0.13800
H960        H  0.11092112  0.62112554  0.69772809     0.14400
C961        C  0.24169948  0.76345135  0.52079078    -0.15200
C962        C  0.20546270  0.78389723  0.52958558    -0.30400
H963        H  0.24907075  0.71250568  0.52030307     0.13800
H964        H  0.19689060  0.83399118  0.52680692     0.14400
C965        C  0.22117434  0.96164728  0.51474292    -0.15200
C966        C  0.20993768  0.96675956  0.54364449    -0.30400
H967        H  0.20317243  0.98486437  0.49713064     0.13800
H968        H  0.22930294  0.94918479  0.56173419     0.14400
C969        C  0.05388658  0.64131414  0.87504848    -0.17300
C970        C  0.07704728  0.63828297  0.85451702     0.06800
C971        C  0.10469821  0.63262834  0.83095075     0.08600
C972        C  0.12712457  0.62715827  0.81008074    -0.18100
C973        C  0.41699645  0.87875448  0.62138733    -0.17300
C974        C  0.39616861  0.88206614  0.59869173     0.06800
C975        C  0.37178128  0.88591747  0.57204470     0.08600
C976        C  0.35055182  0.88745757  0.54953206    -0.18100
C977        C  0.81408746  0.88245753  0.85223821    -0.15200
C978        C  0.83420408  0.87830149  0.82629940    -0.30400
H979        H  0.78136063  0.88271769  0.85137946     0.13800
H980        H  0.86693021  0.87838114  0.82711185     0.14400
C981        C  0.75338951  0.54029309  0.00537290    -0.15200
C982        C  0.76376109  0.53190319  0.97655727    -0.30400
H983        H  0.73358897  0.49917642  0.46710133     0.13800
H984        H  0.74393800  0.54743224  0.95822813     0.14400
C985        C  0.73777935  0.74069672  0.00215945    -0.15200
C986        C  0.77538779  0.72146412  0.99614953    -0.30400
H987        H  0.72430748  0.77005457  0.48830432     0.13800
H988        H  0.78447834  0.67191229  0.00028573     0.14400
C989        C  0.63641893  0.63894606  0.59047613    -0.15200
C990        C  0.66428955  0.60144756  0.57776220    -0.30400
H991        H  0.61933674  0.67278211  0.57655082     0.13800
H992        H  0.67943352  0.56470377  0.59132329     0.14400
C993        C  0.71493990  0.97496820  0.72496264    -0.15200
C994        C  0.73012668  0.97038248  0.75323298    -0.30400
H995        H  0.69695508  0.40703449  0.73585035     0.13800
H996        H  0.71560723  0.99650968  0.77126419     0.14400
C997        C  0.70283321  0.78729306  0.73977209    -0.15200
C998        C  0.73737995  0.76665653  0.75293929    -0.30400
H999        H  0.69631060  0.83839842  0.73836190     0.13800
H1000       H  0.74233380  0.71576726  0.75726270     0.14400
C1001       C  0.62754180  0.61941109  0.96944717    -0.17300
C1002       C  0.60733054  0.61783370  0.94642798     0.06800
C1003       C  0.58426506  0.61693426  0.91909128     0.08600
C1004       C  0.56444180  0.61679208  0.89585960    -0.18100
C1005       C  0.84855767  0.87069622  0.71493208    -0.17300
C1006       C  0.87094869  0.86782924  0.69384329     0.06800
C1007       C  0.89871230  0.86512998  0.67009284     0.08600
C1008       C  0.92208018  0.86397040  0.64956168    -0.18100
loop_ 
_geom_bond_atom_site_label_1 
_geom_bond_atom_site_label_2 
_geom_bond_distance 
_geom_bond_site_symmetry_2 
_ccdc_geom_bond_type 
C1            C2   1.531       .  S
C1            C7   1.531       .  S
C1            C5   1.534       .  S
C1          C252   1.467       .  S
C2            H9   1.087       .  S
C2            C3   1.366       .  D
C3            C4   1.554       .  S
C3          C638   1.490   1_655  S
C4            C8   1.548       .  S
C4            C6   1.541       .  S
C4           H10   1.111   1_655  S
C5           H11   1.086       .  S
C5            C6   1.365       .  D
C6           C76   1.472       .  S
C7           H12   1.087       .  S
C7            C8   1.366       .  D
C8          C139   1.484   1_655  S
C13          C14   1.531       .  S
C13          C19   1.529       .  S
C13          C17   1.531       .  S
C13         C248   1.463       .  S
C14          H21   1.086       .  S
C14          C15   1.368       .  D
C15          C16   1.546       .  S
C15         C679   1.481       .  S
C16          C20   1.546       .  S
C16          C18   1.536       .  S
C16          H22   1.111       .  S
C17          H23   1.087       .  S
C17          C18   1.363       .  D
C18          C41   1.461       .  S
C19          H24   1.087       .  S
C19          C20   1.365       .  D
C20         C169   1.482       .  S
O25          C41   1.273       .  A
O25         Zn31   2.012       .  S
C26         C241   1.475       .  S
C26          O42   1.274       .  A
C26          O39   1.271       .  A
O27          C40   1.282       .  A
O27         Cd34   2.106       .  S
O28          C46   1.272       .  A
O28         Cd37   2.050       .  S
O29          C43   1.274       .  A
O29         Cd33   2.076       .  S
O30          C41   1.274       .  A
O30         Cd33   2.067       .  S
Zn31         O42   2.038       .  S
Zn31         O44   2.039       .  S
Zn31         O36   1.956       .  S
O32          C43   1.269       .  A
O32         Cd37   2.047       .  S
Cd33         O35   2.067       .  S
Cd33         O36   2.005       .  S
Cd34         O38   2.118       .  S
Cd34         O47   2.106       .  S
Cd34         O36   2.006       .  S
O35          C45   1.273       .  A
O36         Cd37   1.993       .  S
Cd37         O39   2.042       .  S
O38          C45   1.283       .  A
C40          C97   1.492       .  S
C40          O44   1.276       .  A
C43         C741   1.463   1_545  S
C45         C606   1.490   1_545  S
C46         C233   1.477       .  S
C46          O47   1.280       .  A
C48          C49   1.544       .  S
C48          C54   1.532       .  S
C48          C52   1.545       .  S
C48         C234   1.513       .  S
C49          H56   1.086       .  S
C49          C50   1.364       .  D
C50         C303   1.526   1_554  S
C50         C477   1.466       .  S
C51          C55   1.531       .  S
C51         C302   1.527       .  S
C51         C305   1.533       .  S
C51          H57   1.112       .  S
C52          H58   1.086       .  S
C52          C53   1.369       .  D
C53         C303   1.535   1_554  S
C53         C481   1.482       .  S
C54          H59   1.087       .  S
C54         C307   1.359   1_554  D
C55         C306   1.361       .  D
C55         C245   1.437       .  S
O60          C76   1.276       .  A
O60        Zn318   2.035   1_554  S
C61         C230   1.452       .  S
C61          O77   1.272       .  A
C61          O74   1.271       .  A
O62          C75   1.282       .  A
O62         Cd69   2.095       .  S
O63          C81   1.275       .  A
O63         Cd72   2.074       .  S
O64          C78   1.271       .  A
O64         Cd68   2.053       .  S
O65          C76   1.274       .  A
O65        Cd320   2.075   1_554  S
Zn66         O77   2.004       .  S
Zn66         O79   2.013       .  S
Zn66        O312   2.033       .  S
Zn66         O71   1.940       .  S
O67          C78   1.274       .  A
O67         Cd72   2.057       .  S
Cd68         O70   2.050       .  S
Cd68        O317   2.053       .  S
Cd68         O71   1.979       .  S
Cd69         O73   2.112       .  S
Cd69         O82   2.083       .  S
Cd69         O71   1.982       .  S
O70          C80   1.272       .  A
O71         Cd72   1.990       .  S
Cd72         O74   2.043       .  S
O73          C80   1.284       .  A
C75         C109   1.482       .  S
C75          O79   1.273       .  A
C78         C730   1.467       .  S
C80         C618   1.482       .  S
C81         C221   1.474       .  S
C81          O82   1.275       .  A
C83          C84   1.539       .  S
C83          C89   1.541       .  S
C83          C87   1.542       .  S
C83         C222   1.514       .  S
C84          H91   1.086       .  S
C84          C85   1.365       .  D
C85          C86   1.532       .  S
C85         C238   1.470       .  S
C86          C90   1.531       .  S
C86          C88   1.526       .  S
C86          H92   1.112       .  S
C87          H93   1.086       .  S
C87          C88   1.366       .  D
C88         C242   1.470       .  S
C89          H94   1.086       .  S
C89          C90   1.363       .  D
C90         C249   1.440       .  S
C95          C96   1.532       .  S
C95         C101   1.533       .  S
C95          C99   1.534       .  S
C95         C217   1.472       .  S
C96         H103   1.086       .  S
C96          C97   1.367       .  D
C97          C98   1.552       .  S
C98         C102   1.552       .  S
C98         C100   1.540       .  S
C98         H104   1.111       .  S
C99         H105   1.087       .  S
C99         C100   1.364       .  D
C100        C155   1.472       .  S
C101        H106   1.086       .  S
C101        C102   1.368       .  D
C102        C549   1.488       .  S
C107        C108   1.527       .  S
C107        C113   1.530       .  S
C107        C111   1.533       .  S
C107        C213   1.462       .  S
C108        H115   1.087       .  S
C108        C109   1.363   1_455  D
C109        C110   1.551       .  S
C110        C114   1.553       .  S
C110        C112   1.540   1_655  S
C110        H116   1.111       .  S
C111        H117   1.086       .  S
C111        C112   1.364       .  D
C112        C135   1.470       .  S
C113        H118   1.086       .  S
C113        C114   1.366   1_455  D
C114        C584   1.486       .  S
O119        C387   1.275   1_554  A
O119       Zn125   2.033       .  S
C120        C714   1.472   1_545  S
C120        O136   1.278       .  A
C120        O133   1.270       .  A
O121        C134   1.280   1_545  A
O121       Cd128   2.085       .  S
O122        C140   1.275       .  A
O122       Cd131   2.064       .  S
O123        C137   1.275       .  A
O123       Cd127   2.072       .  S
O124        C135   1.274       .  A
O124       Cd379   2.073       .  S
Zn125       O136   2.054       .  S
Zn125       O138   2.050   1_545  S
Zn125       O130   1.942       .  S
O126        C137   1.273       .  A
O126       Cd131   2.065       .  S
Cd127       O129   2.071       .  S
Cd127       O376   2.072       .  S
Cd127       O130   1.994       .  S
Cd128       O132   2.094       .  S
Cd128       O141   2.064       .  S
Cd128       O130   1.989       .  S
O129        C139   1.274       .  A
O130       Cd131   1.992       .  S
Cd131       O133   2.049       .  S
O132        C139   1.281       .  A
C134        C507   1.488   1_455  S
C134        O138   1.279       .  A
C135        O371   1.275       .  A
C137        C206   1.463       .  S
C140        C201   1.473       .  S
C140        O141   1.272       .  A
C142        C143   1.539       .  S
C142        C148   1.545       .  S
C142        C146   1.538       .  S
C142        C202   1.512       .  S
C143        H150   1.086       .  S
C143        C144   1.364       .  D
C144        C145   1.525       .  S
C144        C193   1.468       .  S
C145        C149   1.528       .  S
C145        C147   1.530       .  S
C145        H151   1.112       .  S
C146        H152   1.086       .  S
C146        C147   1.364       .  D
C147        C197   1.467       .  S
C148        H153   1.083       .  S
C148        C149   1.362       .  D
C149        C216   1.436       .  S
O154        C170   1.275       .  A
O154       Zn160   2.033       .  S
C155        O171   1.274       .  A
C155        O168   1.275       .  A
O156        C169   1.280       .  A
O156       Cd163   2.083       .  S
O157        C175   1.273       .  A
O157       Cd166   2.067       .  S
O158        C172   1.273       .  A
O158       Cd162   2.061       .  S
O159        C170   1.272       .  A
O159       Cd162   2.044       .  S
Zn160       O171   2.030       .  S
Zn160       O173   2.027       .  S
Zn160       O165   1.949       .  S
O161        C172   1.273       .  A
O161       Cd166   2.062       .  S
Cd162       O164   2.089       .  S
Cd162       O165   1.997       .  S
Cd163       O167   2.079       .  S
Cd163       O176   2.081       .  S
Cd163       O165   1.989       .  S
O164        C174   1.277       .  A
O165       Cd166   2.000       .  S
Cd166       O168   2.081       .  S
O167        C174   1.273       .  A
C169        O173   1.276       .  A
C170        C194   1.473       .  S
C172        C702   1.461       .  S
C174        C189   1.480       .  S
C175        C519   1.479       .  S
C175        O176   1.279       .  A
C177        C178   1.539       .  S
C177        C181   1.542       .  S
C177        C190   1.518       .  S
C177        C435   1.541       .  S
C178        H185   1.086       .  S
C178        C431   1.364       .  D
C179        C180   1.535       .  S
C179        C430   1.367   1_554  D
C179        C205   1.479       .  S
C180        C184   1.533       .  S
C180        C182   1.527       .  S
C180        H186   1.111       .  S
C181        H187   1.086       .  S
C181        C434   1.366       .  D
C182        C433   1.364   1_554  D
C182        C209   1.470       .  S
C183        C429   1.547       .  S
C183        H188   1.083       .  S
C183        C184   1.363   1_556  D
C184        C220   1.446       .  S
C189        H191   1.086       .  S
C189        C190   1.343       .  D
C190        H192   1.087       .  S
C193        H195   1.086       .  S
C193        C194   1.344       .  D
C194        H196   1.087       .  S
C197        H199   1.087   1_545  S
C197        C198   1.340       .  D
C198        H200   1.084       .  S
C198        C676   1.456       .  S
C201        H203   1.081       .  S
C201        C202   1.344       .  D
C202        H204   1.087       .  S
C205        H207   1.087       .  S
C205        C206   1.343       .  D
C206        H208   1.084       .  S
C209        H211   1.085       .  S
C209        C210   1.344       .  D
C210        H212   1.087       .  S
C210        C624   1.474       .  S
C213        C214   1.202       .  T
C214        C215   1.406       .  S
C215        C216   1.202       .  T
C217        C218   1.208       .  T
C218        C219   1.416       .  S
C219        C220   1.208       .  T
C221        H223   1.086       .  S
C221        C222   1.344       .  D
C222        H224   1.087       .  S
C225        H479   1.086       .  S
C225        C226   1.344       .  D
C225        C302   1.471       .  S
C226        H228   1.087       .  S
C226        C582   1.476   1_545  S
H227        C477   1.085   1_566  S
C229        H483   1.088       .  S
C229        C230   1.338       .  D
C229        C305   1.465       .  S
C230        H232   1.085       .  S
H231        C481   1.087       .  S
C233        H235   1.087       .  S
C233        C234   1.341       .  D
C234        H236   1.087       .  S
C237        H743   1.085       .  S
C237        C238   1.342       .  D
C237        C547   1.462       .  S
C238        H240   1.087       .  S
H239        C741   1.083       .  S
C241        H243   1.087       .  S
C241        C242   1.344       .  D
C242        H244   1.086       .  S
C245        C246   1.203       .  T
C246        C247   1.407       .  S
C247        C248   1.203       .  T
C249        C250   1.205       .  T
C250        C251   1.411       .  S
C251        C252   1.205       .  T
C253        C254   1.532       .  S
C253        C259   1.529       .  S
C253        C257   1.533       .  S
C253        C504   1.465       .  S
C254        H261   1.087       .  S
C254        C255   1.366   1_655  D
C255        C256   1.549   1_455  S
C255        C890   1.484       .  S
C256        C260   1.545   1_655  S
C256        C258   1.535       .  S
C256        H262   1.111   1_655  S
C257        H263   1.087       .  S
C257        C258   1.364       .  D
C258        C328   1.464       .  S
C259        H264   1.087       .  S
C259        C260   1.366   1_655  D
C260        C391   1.481       .  S
C265        C266   1.530       .  S
C265        C271   1.531       .  S
C265        C269   1.527       .  S
C265        C500   1.460       .  S
C266        H273   1.086       .  S
C266        C267   1.366       .  D
C267        C268   1.552       .  S
C267        C931   1.483       .  S
C268        C272   1.547       .  S
C268        C270   1.535       .  S
C268        H274   1.111       .  S
C269        H275   1.087       .  S
C269        C270   1.361       .  D
C270        C293   1.457       .  S
C271        H276   1.087       .  S
C271        C272   1.366       .  D
C272        C421   1.486       .  S
O277        C293   1.272       .  A
O277       Zn283   2.003       .  S
C278        C493   1.472       .  S
C278        O294   1.273       .  A
C278        O291   1.274       .  A
O279        C292   1.281       .  A
O279       Cd286   2.103       .  S
O280        C298   1.275       .  A
O280       Cd289   2.059       .  S
O281        C295   1.277       .  A
O281       Cd285   2.094       .  S
O282        C293   1.273       .  A
O282       Cd285   2.061       .  S
Zn283       O294   2.019       .  S
Zn283       O296   2.033       .  S
Zn283       O288   1.936       .  S
O284        C295   1.270       .  A
O284       Cd289   2.056       .  S
Cd285       O287   2.094   1_545  S
Cd285       O288   1.996       .  S
Cd286       O290   2.083       .  S
Cd286       O299   2.073       .  S
Cd286       O288   1.982       .  S
O287        C297   1.279       .  A
O288       Cd289   1.986       .  S
Cd289       O291   2.052       .  S
O290        C297   1.280   1_545  A
C292        C349   1.490       .  S
C292        O296   1.275       .  A
C295        C993   1.471   1_545  S
C297        C858   1.486       .  S
C298        C485   1.469       .  S
C298        O299   1.274       .  A
C300        C301   1.543       .  S
C300        C306   1.537       .  S
C300        C304   1.535       .  S
C300        C486   1.506       .  S
C301        H308   1.086       .  S
C301        C302   1.366       .  D
C303        C307   1.530       .  S
C303        H309   1.110       .  S
C304        H310   1.087       .  S
C304        C305   1.362       .  D
C306        H311   1.086       .  S
C307        C497   1.434       .  S
O312        C328   1.275       .  A
C313        C482   1.462       .  S
C313        O329   1.275       .  A
C313        O326   1.271       .  A
O314        C327   1.279       .  A
O314       Cd321   2.081       .  S
O315        C333   1.274       .  A
O315       Cd324   2.064       .  S
O316        C330   1.277       .  A
O316       Cd320   2.082       .  S
O317        C328   1.270       .  A
Zn318       O329   2.030       .  S
Zn318       O331   2.026       .  S
Zn318       O323   1.941       .  S
O319        C330   1.270       .  A
O319       Cd324   2.049       .  S
Cd320       O322   2.091       .  S
Cd320       O323   1.994       .  S
Cd321       O325   2.084       .  S
Cd321       O334   2.068       .  S
Cd321       O323   1.985       .  S
O322        C332   1.278       .  A
O323       Cd324   1.993       .  S
Cd324       O326   2.053       .  S
O325        C332   1.280       .  A
C327        C361   1.482       .  S
C327        O331   1.274       .  A
C330        C982   1.466       .  S
C332        C870   1.485       .  S
C333        C473   1.474       .  S
C333        O334   1.273       .  A
C335        C336   1.538       .  S
C335        C341   1.546       .  S
C335        C339   1.542       .  S
C335        C474   1.516       .  S
C336        H343   1.086       .  S
C336        C337   1.363       .  D
C337        C338   1.530       .  S
C337        C490   1.469       .  S
C338        C342   1.528       .  S
C338        C340   1.524       .  S
C338        H344   1.112       .  S
C339        H345   1.086       .  S
C339        C340   1.366       .  D
C340        C494   1.467       .  S
C341        H346   1.083       .  S
C341        C342   1.362       .  D
C342        C501   1.438       .  S
C347        C348   1.533       .  S
C347        C353   1.535       .  S
C347        C351   1.535       .  S
C347        C469   1.475       .  S
C348        H355   1.086       .  S
C348        C349   1.366       .  D
C349        C350   1.549       .  S
C350        C354   1.550       .  S
C350        C352   1.537       .  S
C350        H356   1.111       .  S
C351        H357   1.086       .  S
C351        C352   1.365       .  D
C352        C407   1.470       .  S
C353        H358   1.086       .  S
C353        C354   1.369       .  D
C354        C801   1.488       .  S
C359        C360   1.529       .  S
C359        C365   1.528       .  S
C359        C363   1.531       .  S
C359        C465   1.458       .  S
C360        H367   1.087       .  S
C360        C361   1.366   1_455  D
C361        C362   1.548       .  S
C362        C366   1.553       .  S
C362        C364   1.540   1_655  S
C362        H368   1.111       .  S
C363        H369   1.087       .  S
C363        C364   1.362       .  D
C364        C387   1.468       .  S
C365        H370   1.087   1_455  S
C365        C366   1.364   1_455  D
C366        C836   1.484       .  S
O371       Zn377   2.034       .  S
C372        C966   1.470   1_545  S
C372        O388   1.278       .  A
C372        O385   1.270       .  A
O373        C386   1.279   1_545  A
O373       Cd380   2.078       .  S
O374        C392   1.272       .  A
O374       Cd383   2.046       .  S
O375        C389   1.277       .  A
O375       Cd379   2.077       .  S
O376        C387   1.274   1_554  A
Zn377       O388   2.055       .  S
Zn377       O390   2.051   1_545  S
Zn377       O382   1.937       .  S
O378        C389   1.270       .  A
O378       Cd383   2.050       .  S
Cd379       O381   2.084       .  S
Cd379       O382   1.988       .  S
Cd380       O384   2.078       .  S
Cd380       O393   2.065       .  S
Cd380       O382   1.982       .  S
O381        C391   1.277       .  A
O382       Cd383   1.984       .  S
Cd383       O385   2.043       .  S
O384        C391   1.279       .  A
C386        C759   1.486   1_455  S
C386        O390   1.280       .  A
C389        C458   1.465       .  S
C392        C453   1.470       .  S
C392        O393   1.271       .  A
C394        C395   1.541       .  S
C394        C400   1.543       .  S
C394        C398   1.536       .  S
C394        C454   1.509       .  S
C395        H402   1.086       .  S
C395        C396   1.365       .  D
C396        C397   1.525       .  S
C396        C445   1.469       .  S
C397        C401   1.527       .  S
C397        C399   1.531       .  S
C397        H403   1.112       .  S
C398        H404   1.087       .  S
C398        C399   1.363       .  D
C399        C449   1.464       .  S
C400        H405   1.082       .  S
C400        C401   1.359       .  D
C401        C468   1.432       .  S
O406        C422   1.274       .  A
O406       Zn412   2.023       .  S
C407        O423   1.274       .  A
C407        O420   1.276       .  A
O408        C421   1.279       .  A
O408       Cd415   2.086       .  S
O409        C427   1.276       .  A
O409       Cd418   2.084       .  S
O410        C424   1.272       .  A
O410       Cd414   2.062       .  S
O411        C422   1.273       .  A
O411       Cd414   2.054       .  S
Zn412       O423   2.022       .  S
Zn412       O425   2.037       .  S
Zn412       O417   1.950       .  S
O413        C424   1.276       .  A
O413       Cd418   2.080       .  S
Cd414       O416   2.087       .  S
Cd414       O417   2.004       .  S
Cd415       O419   2.072       .  S
Cd415       O428   2.093       .  S
Cd415       O417   1.992       .  S
O416        C426   1.278       .  A
O417       Cd418   2.004       .  S
Cd418       O420   2.083       .  S
O419        C426   1.274       .  A
C421        O425   1.276       .  A
C422        C446   1.472       .  S
C424        C954   1.466       .  S
C426        C441   1.481       .  S
C427        C771   1.488       .  S
C427        O428   1.280       .  A
C429        C430   1.541       .  S
C429        C433   1.542       .  S
C429        C442   1.524       .  S
C430        H437   1.087       .  S
C431        C432   1.537       .  S
C431        C457   1.479       .  S
C432        C436   1.535       .  S
C432        C434   1.529       .  S
C432        H438   1.109       .  S
C433        H439   1.086       .  S
C434        C461   1.473       .  S
C435        H440   1.086       .  S
C435        C436   1.366       .  D
C436        C472   1.448       .  S
C441        H443   1.082       .  S
C441        C442   1.347       .  D
C442        H444   1.088       .  S
C445        H447   1.086       .  S
C445        C446   1.342       .  D
C446        H448   1.087       .  S
C449        H451   1.087   1_545  S
C449        C450   1.339       .  D
C450        H452   1.085       .  S
C450        C928   1.458   1_545  S
C453        H455   1.081       .  S
C453        C454   1.344       .  D
C454        H456   1.087       .  S
C457        H459   1.087       .  S
C457        C458   1.340       .  D
C458        H460   1.084       .  S
C461        H463   1.086       .  S
C461        C462   1.346       .  D
C462        H464   1.086       .  S
C462        C876   1.470       .  S
C465        C466   1.200       .  T
C466        C467   1.402       .  S
C467        C468   1.199       .  T
C469        C470   1.210       .  T
C470        C471   1.418       .  S
C471        C472   1.210       .  T
C473        H475   1.081       .  S
C473        C474   1.346       .  D
C474        H476   1.087       .  S
C477        C478   1.343       .  D
C478        H480   1.085       .  S
C478        C834   1.467   1_554  S
C481        C482   1.345   1_554  D
C482        H484   1.083       .  S
C485        H487   1.087       .  S
C485        C486   1.340       .  D
C486        H488   1.088       .  S
C489        H995   1.084       .  S
C489        C490   1.342       .  D
C489        C799   1.461       .  S
C490        H492   1.087       .  S
H491        C993   1.083       .  S
C493        H495   1.088       .  S
C493        C494   1.341       .  D
C494        H496   1.086       .  S
C497        C498   1.201       .  T
C498        C499   1.404       .  S
C499        C500   1.201       .  T
C501        C502   1.203       .  T
C502        C503   1.408       .  S
C503        C504   1.204       .  T
C505        C506   1.534       .  S
C505        C511   1.532       .  S
C505        C509   1.530       .  S
C505        C756   1.467       .  S
C506        H513   1.087       .  S
C506        C507   1.368       .  D
C507        C508   1.545       .  S
C508        C512   1.551   1_655  S
C508        C510   1.536       .  S
C508        H514   1.111   1_655  S
C509        H515   1.087       .  S
C509        C510   1.361       .  D
C510        C580   1.462       .  S
C511        H516   1.086       .  S
C511        C512   1.367   1_655  D
C512        C643   1.483       .  S
C517        C518   1.527       .  S
C517        C523   1.531       .  S
C517        C521   1.535       .  S
C517        C752   1.466       .  S
C518        H525   1.087       .  S
C518        C519   1.364       .  D
C519        C520   1.548       .  S
C520        C524   1.544       .  S
C520        C522   1.532       .  S
C520        H526   1.111       .  S
C521        H527   1.086       .  S
C521        C522   1.366       .  D
C522        C545   1.462       .  S
C523        H528   1.086       .  S
C523        C524   1.368       .  D
C524        C673   1.483       .  S
O529        C545   1.275       .  A
O529       Zn535   2.022       .  S
C530        C745   1.476       .  S
C530        O546   1.275       .  A
C530        O543   1.274       .  A
O531        C544   1.280       .  A
O531       Cd538   2.091       .  S
O532        C550   1.277       .  A
O532       Cd541   2.075       .  S
O533        C547   1.272       .  A
O533       Cd537   2.064       .  S
O534        C545   1.273       .  A
O534       Cd537   2.063       .  S
Zn535       O546   2.033       .  S
Zn535       O548   2.045       .  S
Zn535       O540   1.945       .  S
O536        C547   1.271       .  A
O536       Cd541   2.051       .  S
Cd537       O539   2.069       .  S
Cd537       O540   1.997       .  S
Cd538       O542   2.110       .  S
Cd538       O551   2.069       .  S
Cd538       O540   1.998       .  S
O539        C549   1.274       .  A
O540       Cd541   1.996       .  S
Cd541       O543   2.059       .  S
O542        C549   1.283       .  A
C544        C601   1.489       .  S
C544        O548   1.278       .  A
C550        C737   1.470       .  S
C550        O551   1.273       .  A
C552        C553   1.538       .  S
C552        C558   1.541       .  S
C552        C556   1.536       .  S
C552        C738   1.509       .  S
C553        H560   1.087       .  S
C553        C554   1.363       .  D
C554        C807   1.537   1_554  S
C554        C981   1.479       .  S
C555        C806   1.526       .  S
C555        C559   1.528       .  S
C555        C809   1.529       .  S
C555        H561   1.112       .  S
C556        H562   1.086       .  S
C556        C557   1.362       .  D
C557        C807   1.531   1_554  S
C557        C985   1.466       .  S
C558        H563   1.086       .  S
C558        C811   1.367   1_554  D
C559        C810   1.363       .  D
C559        C749   1.439       .  S
O564        C580   1.273       .  A
O564       Zn822   2.020   1_554  S
C565        C734   1.469       .  S
C565        O581   1.274       .  A
C565        O578   1.271       .  A
O566        C579   1.282       .  A
O566       Cd573   2.114       .  S
O567        C585   1.273       .  A
O567       Cd576   2.063       .  S
O568        C582   1.274   1_545  A
O568       Cd572   2.078   1_545  S
O569        C580   1.271       .  A
O569       Cd824   2.059   1_554  S
Zn570       O816   2.018       .  S
Zn570       O581   2.022       .  S
Zn570       O583   2.027       .  S
Zn570       O575   1.955       .  S
O571        C582   1.273       .  A
O571       Cd576   2.060       .  S
Cd572       O821   2.059       .  S
Cd572       O574   2.068   1_565  S
Cd572       O575   2.006       .  S
Cd573       O577   2.107       .  S
Cd573       O586   2.103       .  S
Cd573       O575   2.005       .  S
O574        C584   1.274       .  A
O575       Cd576   1.999       .  S
Cd576       O578   2.046       .  S
O577        C584   1.283   1_565  A
C579        C613   1.492       .  S
C579        O583   1.274       .  A
C585        C725   1.482       .  S
C585        O586   1.281       .  A
C587        C588   1.542       .  S
C587        C593   1.533       .  S
C587        C591   1.547       .  S
C587        C726   1.516       .  S
C588        H595   1.086       .  S
C588        C589   1.367       .  D
C589        C590   1.535       .  S
C589        C742   1.476       .  S
C590        C594   1.534       .  S
C590        C592   1.528       .  S
C590        H596   1.112       .  S
C591        H597   1.086       .  S
C591        C592   1.369       .  D
C592        C746   1.473       .  S
C593        H598   1.087       .  S
C593        C594   1.359       .  D
C594        C753   1.440       .  S
C599        C600   1.536       .  S
C599        C605   1.534       .  S
C599        C603   1.536       .  S
C599        C721   1.476       .  S
C600        H607   1.086       .  S
C600        C601   1.369       .  D
C601        C602   1.545       .  S
C602        C606   1.553       .  S
C602        C604   1.537       .  S
C602        H608   1.111       .  S
C603        H609   1.086       .  S
C603        C604   1.366       .  D
C604        C659   1.471       .  S
C605        H610   1.086       .  S
C605        C606   1.367       .  D
C611        C612   1.535       .  S
C611        C617   1.533       .  S
C611        C615   1.532       .  S
C611        C717   1.467       .  S
C612        H619   1.086       .  S
C612        C613   1.368   1_455  D
C613        C614   1.552       .  S
C614        C618   1.549       .  S
C614        C616   1.536   1_655  S
C614        H620   1.111       .  S
C615        H621   1.087       .  S
C615        C616   1.362       .  D
C616        C639   1.467       .  S
C617        H622   1.087       .  S
C617        C618   1.365   1_455  D
O623        C891   1.273       .  A
O623       Zn629   2.017   1_556  S
C624        O640   1.275       .  A
C624        O637   1.272       .  A
O625        C638   1.283       .  A
O625       Cd632   2.109       .  S
O626        C644   1.274       .  A
O626       Cd635   2.069       .  S
O627        C641   1.272       .  A
O627       Cd631   2.062       .  S
O628        C639   1.271       .  A
O628       Cd883   2.059       .  S
Zn629       O640   2.034       .  S
Zn629       O642   2.025       .  S
Zn629       O634   1.954       .  S
O630        C641   1.271       .  A
O630       Cd635   2.051       .  S
Cd631       O880   2.058   1_554  S
Cd631       O633   2.052       .  S
Cd631       O634   2.001       .  S
Cd632       O636   2.109       .  S
Cd632       O645   2.099       .  S
Cd632       O634   2.003       .  S
O633        C643   1.271       .  A
O634       Cd635   1.999       .  S
Cd635       O637   2.051       .  S
O636        C643   1.281       .  A
C638        O642   1.274       .  A
C639        O875   1.275       .  A
C641        C710   1.463       .  S
C644        C705   1.483       .  S
C644        O645   1.280       .  A
C646        C647   1.547       .  S
C646        C652   1.536       .  S
C646        C650   1.541       .  S
C646        C706   1.516       .  S
C647        H654   1.086       .  S
C647        C648   1.370       .  D
C648        C649   1.528       .  S
C648        C697   1.474       .  S
C649        C653   1.531       .  S
C649        C651   1.534       .  S
C649        H655   1.112       .  S
C650        H656   1.086       .  S
C650        C651   1.366       .  D
C651        C701   1.473       .  S
C652        H657   1.087       .  S
C652        C653   1.359       .  D
C653        C720   1.440       .  S
O658        C674   1.276       .  A
O658       Zn664   2.038       .  S
C659        O675   1.276       .  A
C659        O672   1.274       .  A
O660        C673   1.277       .  A
O660       Cd667   2.073       .  S
O661        C679   1.274       .  A
O661       Cd670   2.072   1_545  S
O662        C676   1.271   1_565  A
O662       Cd666   2.046       .  S
O663        C674   1.275       .  A
O663       Cd666   2.062       .  S
Zn664       O675   2.035       .  S
Zn664       O677   2.040       .  S
Zn664       O669   1.941       .  S
O665        C676   1.273       .  A
O665       Cd670   2.059   1_545  S
Cd666       O668   2.094       .  S
Cd666       O669   1.999       .  S
Cd667       O671   2.060       .  S
Cd667       O680   2.083       .  S
Cd667       O669   1.986       .  S
O668        C678   1.279       .  A
O669       Cd670   1.998       .  S
Cd670       O672   2.078       .  S
O671        C678   1.272       .  A
C673        O677   1.277       .  A
C674        C698   1.480       .  S
C678        C693   1.479       .  S
C679        O680   1.278   1_545  A
C681        C682   1.538       .  S
C681        C939   1.550       .  S
C681        C685   1.542       .  S
C681        C694   1.522       .  S
C682        H689   1.087       .  S
C682        C935   1.362       .  D
C683        C684   1.531       .  S
C683        C934   1.364   1_554  D
C683        C709   1.470       .  S
C684        C688   1.538       .  S
C684        C686   1.541       .  S
C684        H690   1.108       .  S
C685        H691   1.086       .  S
C685        C938   1.367       .  D
C686        C937   1.367   1_554  D
C686        C713   1.489       .  S
C687        C933   1.538       .  S
C687        H692   1.086       .  S
C687        C688   1.364   1_556  D
C688        C724   1.448       .  S
C693        H695   1.082       .  S
C693        C694   1.344       .  D
C694        H696   1.088       .  S
C697        H699   1.086       .  S
C697        C698   1.345       .  D
C698        H700   1.087       .  S
C701        H703   1.087       .  S
C701        C702   1.341       .  D
C702        H704   1.086       .  S
C705        H707   1.087       .  S
C705        C706   1.343       .  D
C706        H708   1.087       .  S
C709        H711   1.086       .  S
C709        C710   1.343       .  D
C710        H712   1.086       .  S
C713        H715   1.086   1_564  S
C713        C714   1.344       .  D
C714        H716   1.082       .  S
C717        C718   1.205       .  T
C718        C719   1.410       .  S
C719        C720   1.205       .  T
C721        C722   1.210       .  T
C722        C723   1.419       .  S
C723        C724   1.210       .  T
C725        H727   1.088       .  S
C725        C726   1.342       .  D
C726        H728   1.088       .  S
C729        H983   1.086       .  S
C729        C730   1.339       .  D
C729        C806   1.467       .  S
C730        H732   1.088       .  S
H731        C981   1.087       .  S
C733        H987   1.086       .  S
C733        C734   1.343       .  D
C733        C809   1.467       .  S
C734        H736   1.086       .  S
H735        C985   1.087       .  S
C737        H739   1.086       .  S
C737        C738   1.339       .  D
C738        H740   1.088       .  S
C741        C742   1.343       .  D
C742        H744   1.088   1_565  S
C745        H747   1.088       .  S
C745        C746   1.345       .  D
C746        H748   1.087       .  S
C749        C750   1.204       .  T
C750        C751   1.410       .  S
C751        C752   1.205       .  T
C753        C754   1.205       .  T
C754        C755   1.411       .  S
C755        C756   1.205       .  T
C757        C758   1.535       .  S
C757        C763   1.535       .  S
C757        C761   1.529       .  S
C757       C1008   1.468       .  S
C758        H765   1.086       .  S
C758        C759   1.369       .  D
C759        C760   1.543       .  S
C760        C764   1.550   1_655  S
C760        C762   1.535       .  S
C760        H766   1.111   1_655  S
C761        H767   1.087       .  S
C761        C762   1.360       .  D
C762        C832   1.461       .  S
C763        H768   1.086       .  S
C763        C764   1.368   1_655  D
C764        C895   1.485       .  S
C769        C770   1.534       .  S
C769        C775   1.534       .  S
C769        C773   1.537       .  S
C769       C1004   1.479       .  S
C770        H777   1.086       .  S
C770        C771   1.368       .  D
C771        C772   1.547       .  S
C772        C776   1.545       .  S
C772        C774   1.535       .  S
C772        H778   1.111       .  S
C773        H779   1.086       .  S
C773        C774   1.367       .  D
C774        C797   1.468       .  S
C775        H780   1.086       .  S
C775        C776   1.368       .  D
C776        C925   1.485       .  S
O781        C797   1.276       .  A
O781       Zn787   2.036       .  S
C782        C997   1.467       .  S
C782        O798   1.274       .  A
C782        O795   1.272       .  A
O783        C796   1.278       .  A
O783       Cd790   2.090       .  S
O784        C802   1.277       .  A
O784       Cd793   2.085       .  S
O785        C799   1.273       .  A
O785       Cd789   2.069       .  S
O786        C797   1.273       .  A
O786       Cd789   2.068       .  S
Zn787       O798   2.028       .  S
Zn787       O800   2.041       .  S
Zn787       O792   1.955       .  S
O788        C799   1.270       .  A
O788       Cd793   2.046       .  S
Cd789       O791   2.070       .  S
Cd789       O792   2.003       .  S
Cd790       O794   2.108       .  S
Cd790       O803   2.071       .  S
Cd790       O792   2.002       .  S
O791        C801   1.274       .  A
O792       Cd793   2.006       .  S
Cd793       O795   2.062       .  S
O794        C801   1.281       .  A
C796        C853   1.489       .  S
C796        O800   1.277       .  A
C802        C989   1.472       .  S
C802        O803   1.274       .  A
C804        C805   1.540       .  S
C804        C810   1.542       .  S
C804        C808   1.538       .  S
C804        C990   1.513       .  S
C805        H812   1.086       .  S
C805        C806   1.367       .  D
C807        C811   1.536       .  S
C807        H813   1.109       .  S
C808        H814   1.086       .  S
C808        C809   1.364       .  D
C810        H815   1.086       .  S
C811       C1001   1.451       .  S
O816        C832   1.273       .  A
C817        C986   1.462       .  S
C817        O833   1.272       .  A
C817        O830   1.268       .  A
O818        C831   1.282       .  A
O818       Cd825   2.108       .  S
O819        C837   1.272       .  A
O819       Cd828   2.059       .  S
O820        C834   1.273       .  A
O820       Cd824   2.071   1_545  S
O821        C832   1.272       .  A
Zn822       O833   2.017       .  S
Zn822       O835   2.005       .  S
Zn822       O827   1.950       .  S
O823        C834   1.271   1_565  A
O823       Cd828   2.043       .  S
Cd824       O826   2.057   1_565  S
Cd824       O827   2.001       .  S
Cd825       O829   2.113       .  S
Cd825       O838   2.110       .  S
Cd825       O827   2.004       .  S
O826        C836   1.272       .  A
O827       Cd828   1.989       .  S
Cd828       O830   2.031       .  S
O829        C836   1.284   1_565  A
C831        C865   1.484       .  S
C831        O835   1.272       .  A
C837        C977   1.483       .  S
C837        O838   1.281       .  A
C839        C840   1.544       .  S
C839        C845   1.530       .  S
C839        C843   1.547       .  S
C839        C978   1.519       .  S
C840        H847   1.086       .  S
C840        C841   1.370       .  D
C841        C842   1.539       .  S
C841        C994   1.488       .  S
C842        C846   1.535       .  S
C842        C844   1.532       .  S
C842        H848   1.108       .  S
C843        H849   1.086       .  S
C843        C844   1.371       .  D
C844        C998   1.480       .  S
C845        H850   1.087       .  S
C845        C846   1.357       .  D
C846       C1005   1.442       .  S
C851        C852   1.537       .  S
C851        C857   1.531       .  S
C851        C855   1.535       .  S
C851        C973   1.479       .  S
C852        H859   1.086       .  S
C852        C853   1.371       .  D
C853        C854   1.546       .  S
C854        C858   1.548       .  S
C854        C856   1.538       .  S
C854        H860   1.111       .  S
C855        H861   1.086       .  S
C855        C856   1.366       .  D
C856        C911   1.469       .  S
C857        H862   1.087       .  S
C857        C858   1.368       .  D
C863        C864   1.533       .  S
C863        C869   1.532       .  S
C863        C867   1.527       .  S
C863        C969   1.463       .  S
C864        H871   1.086   1_455  S
C864        C865   1.368   1_455  D
C865        C866   1.552       .  S
C866        C870   1.546       .  S
C866        C868   1.537   1_655  S
C866        H872   1.111       .  S
C867        H873   1.087       .  S
C867        C868   1.359       .  D
C868        C891   1.460       .  S
C869        H874   1.087       .  S
C869        C870   1.368   1_455  D
O875       Zn881   2.037       .  S
C876        O892   1.275       .  A
C876        O889   1.270       .  A
O877        C890   1.282       .  A
O877       Cd884   2.100       .  S
O878        C896   1.273       .  A
O878       Cd887   2.063       .  S
O879        C893   1.271       .  A
O879       Cd883   2.052       .  S
O880        C891   1.271       .  A
Zn881       O892   2.036       .  S
Zn881       O894   2.015       .  S
Zn881       O886   1.952       .  S
O882        C893   1.269       .  A
O882       Cd887   2.036       .  S
Cd883       O885   2.054       .  S
Cd883       O886   1.998       .  S
Cd884       O888   2.115       .  S
Cd884       O897   2.103       .  S
Cd884       O886   2.008       .  S
O885        C895   1.271       .  A
O886       Cd887   1.997       .  S
Cd887       O889   2.046       .  S
O888        C895   1.282       .  A
C890        O894   1.274       .  A
C893        C962   1.454       .  S
C896        C957   1.482       .  S
C896        O897   1.280       .  A
C898        C899   1.547       .  S
C898        C904   1.531       .  S
C898        C902   1.542       .  S
C898        C958   1.516       .  S
C899        H906   1.086       .  S
C899        C900   1.369       .  D
C900        C901   1.528       .  S
C900        C949   1.473       .  S
C901        C905   1.534       .  S
C901        C903   1.537       .  S
C901        H907   1.112       .  S
C902        H908   1.086       .  S
C902        C903   1.369       .  D
C903        C953   1.481       .  S
C904        H909   1.087       .  S
C904        C905   1.358       .  D
C905        C972   1.437       .  S
O910        C926   1.275       .  A
O910       Zn916   2.032       .  S
C911        O927   1.275       .  A
C911        O924   1.273       .  A
O912        C925   1.279       .  A
O912       Cd919   2.086       .  S
O913        C931   1.272       .  A
O913       Cd922   2.058   1_545  S
O914        C928   1.270       .  A
O914       Cd918   2.041       .  S
O915        C926   1.275       .  A
O915       Cd918   2.063       .  S
Zn916       O927   2.034       .  S
Zn916       O929   2.034       .  S
Zn916       O921   1.947       .  S
O917        C928   1.272       .  A
O917       Cd922   2.057       .  S
Cd918       O920   2.081       .  S
Cd918       O921   2.000       .  S
Cd919       O923   2.081       .  S
Cd919       O932   2.104       .  S
Cd919       O921   1.998       .  S
O920        C930   1.277       .  A
O921       Cd922   2.000       .  S
Cd922       O924   2.068       .  S
O923        C930   1.275       .  A
C925        O929   1.277       .  A
C926        C950   1.476       .  S
C930        C945   1.476       .  S
C931        O932   1.281   1_545  A
C933        C934   1.538       .  S
C933        C937   1.542       .  S
C933        C946   1.515       .  S
C934        H941   1.086       .  S
C935        C936   1.528       .  S
C935        C961   1.465       .  S
C936        C940   1.531       .  S
C936        C938   1.540       .  S
C936        H942   1.107       .  S
C937        H943   1.086       .  S
C938        C965   1.490       .  S
C939        H944   1.083       .  S
C939        C940   1.365       .  D
C940        C976   1.451       .  S
C945        H947   1.086       .  S
C945        C946   1.344       .  D
C946        H948   1.087       .  S
C949        H951   1.086       .  S
C949        C950   1.344       .  D
C950        H952   1.087       .  S
C953        H955   1.087       .  S
C953        C954   1.345       .  D
C954        H956   1.083       .  S
C957        H959   1.087       .  S
C957        C958   1.342       .  D
C958        H960   1.087       .  S
C961        H963   1.087       .  S
C961        C962   1.341       .  D
C962        H964   1.085       .  S
C965        H967   1.086       .  S
C965        C966   1.344       .  D
C966        H968   1.081       .  S
C969        C970   1.203       .  T
C970        C971   1.407       .  S
C971        C972   1.203       .  T
C973        C974   1.212       .  T
C974        C975   1.422       .  S
C975        C976   1.211       .  T
C977        H979   1.087       .  S
C977        C978   1.342       .  D
C978        H980   1.087       .  S
C981        C982   1.340   1_554  D
C982        H984   1.084       .  S
C985        C986   1.343   1_554  D
C986        H988   1.087   1_556  S
C989        H991   1.086       .  S
C989        C990   1.342       .  D
C990        H992   1.087       .  S
C993        C994   1.345       .  D
C994        H996   1.087       .  S
C997        H999   1.085       .  S
C997        C998   1.347       .  D
C998       H1000   1.086       .  S
C1001      C1002   1.211       .  T
C1002      C1003   1.422       .  S
C1003      C1004   1.212       .  T
C1005      C1006   1.206       .  T
C1006      C1007   1.412       .  S
C1007      C1008   1.206       .  T
