geometry optimzed in LAMMPS
_audit_creation_date              2020-11-30 
_audit_creation_method            'lammps2cif' 
_symmetry_space_group_name_H-M    'P1' 
_symmetry_Int_Tables_number       1 
_symmetry_cell_setting            triclinic 
loop_ 
_symmetry_equiv_pos_as_xyz 
  x,y,z 
_cell_length_a                    31.7950047 
_cell_length_b                    32.19782915671077 
_cell_length_c                    67.29357251945471 
_cell_angle_alpha                 89.82896112996801 
_cell_angle_beta                  90.02869906509586 
_cell_angle_gamma                 122.37616933647129 
loop_ 
_atom_site_label 
_atom_site_type_symbol 
_atom_site_fract_x 
_atom_site_fract_y 
_atom_site_fract_z 
_atom_site_charge 
O1          O  0.80954300  0.94476565  0.75505236    -0.55200
C2          C  0.87215730  0.08348676  0.76758207     0.77400
O3          O  0.71255041  0.93780193  0.74510726    -0.56400
C4          C  0.79306965  0.91278928  0.76872701     0.77400
C5          C  0.72847146  0.98778222  0.80666400     0.79800
Cd6        Cd  0.77634869  0.99197594  0.76939077     1.37500
O7          O  0.86791116  0.04221798  0.76871630    -0.55200
O8          O  0.77525079  0.00986439  0.80508892    -0.54000
C9          C  0.71539982  0.97144595  0.73439413     0.79700
O10         O  0.70378630  0.96998971  0.79086397    -0.56400
O11         O  0.83200608  0.08286395  0.76652254    -0.54800
O12         O  0.77102981  0.91879317  0.78304117    -0.54800
O13         O  0.74465229  0.01511611  0.74031494    -0.54000
O14         O  0.75498475  0.99226089  0.91858987    -0.55200
C15         C  0.70759566  0.98542417  0.86257211     0.77400
O16         O  0.62936338  0.85466372  0.90565154    -0.56400
C17         C  0.73891249  0.98096207  0.93617917     0.77400
C18         C  0.58370158  0.94186885  0.90726120     0.79800
Cd19       Cd  0.67419922  0.94423879  0.90189740     1.37500
O20         O  0.67023073  0.94246019  0.86535075    -0.55200
O21         O  0.62533001  0.98252981  0.90763499    -0.54000
C22         C  0.66547381  0.85124642  0.90034640     0.79700
O23         O  0.58464339  0.90347783  0.90500873    -0.56400
O24         O  0.72797027  0.01095865  0.87796043    -0.54800
O25         O  0.69210950  0.95582067  0.93832106    -0.54800
O26         O  0.70502412  0.89057638  0.89521844    -0.54000
O27         O  0.01738997  0.21952638  0.77184643    -0.55200
C28         C  0.15271128  0.28966532  0.78118818     0.77400
O29         O  0.05129367  0.33977280  0.75004223    -0.56400
C30         C  0.97734629  0.21904864  0.77295783     0.77400
C31         C  0.07055444  0.34269446  0.81880982     0.79800
Cd32       Cd  0.07331931  0.30819830  0.77924868     1.37500
O33         O  0.12376373  0.27540117  0.76635424    -0.55200
O34         O  0.05268551  0.29784572  0.81501048    -0.54000
C35         C  0.09510337  0.37280942  0.74510562     0.79700
O36         O  0.08726367  0.37192545  0.80411228    -0.56400
O37         O  0.14407821  0.31081565  0.79487998    -0.54800
O38         O  0.98166422  0.25956782  0.77684614    -0.54800
O39         O  0.12928932  0.37909404  0.75673519    -0.54000
O40         O  0.05397277  0.31694491  0.89033287    -0.55200
C41         C  0.07261624  0.31070207  0.94944981     0.77400
O42         O  0.19712648  0.42223599  0.92372004    -0.56400
C43         C  0.07083974  0.34665031  0.87580711     0.77400
C44         C  0.10765765  0.46683809  0.92344516     0.79800
Cd45       Cd  0.10761645  0.37860532  0.91595246     1.37500
O46         O  0.04241813  0.31798113  0.94016039    -0.55200
O47         O  0.06706697  0.42531564  0.92295636    -0.54000
C48         C  0.20493559  0.39491429  0.91291152     0.79700
O49         O  0.14713668  0.46680077  0.92162333    -0.56400
O50         O  0.11707497  0.33482788  0.94347260    -0.54800
O51         O  0.10225142  0.39112687  0.87994987    -0.54800
O52         O  0.16844402  0.36214704  0.90290891    -0.54000
O53         O  0.99209472  0.71461518  0.76959003    -0.55200
C54         C  0.12564588  0.78959873  0.78012555     0.77400
O55         O  0.06430372  0.64136848  0.80409741    -0.56400
C56         C  0.95267966  0.67222756  0.76910836     0.77400
C57         C  0.08277671  0.65294684  0.74540753     0.79800
Cd58       Cd  0.04863564  0.68689990  0.77811723     1.37500
O59         O  0.10155920  0.77087859  0.76422055    -0.55200
O60         O  0.11289989  0.68839561  0.75634127    -0.54000
C61         C  0.04421643  0.65062962  0.81822177     0.79700
O62         O  0.03749087  0.63013723  0.75061579    -0.56400
O63         O  0.11191807  0.76183759  0.79519633    -0.54800
O64         O  0.95768157  0.63625311  0.77194246    -0.54800
O65         O  0.02343469  0.67351205  0.81361569    -0.54000
O66         O  0.11691018  0.60526803  0.92116569    -0.55200
C67         C  0.18620234  0.73989095  0.91135045     0.77400
O68         O  0.02569558  0.65814487  0.89000119    -0.56400
C69         C  0.07487047  0.56508259  0.92111132     0.77400
C70         C  0.04983220  0.68091593  0.95129020     0.79800
Cd71       Cd  0.08451926  0.65821438  0.91505366     1.37500
O72         O  0.17573157  0.70193161  0.92116425    -0.55200
O73         O  0.06931956  0.71146367  0.93715573    -0.54000
C74         C  0.04419379  0.64880282  0.87528801     0.79700
O75         O  0.04285956  0.63904462  0.94816015    -0.56400
O76         O  0.15002474  0.73985438  0.90353915    -0.54800
O77         O  0.03699651  0.56792908  0.91858089    -0.54800
O78         O  0.07847926  0.64137920  0.87919849    -0.54000
O79         O  0.30538336  0.04257951  0.75778053    -0.55200
C80         C  0.24186556  0.91230955  0.76569097     0.77400
O81         O  0.40252496  0.01870708  0.73857089    -0.56400
C82         C  0.34423246  0.08477130  0.75998290     0.77400
C83         C  0.38068770  0.00012140  0.80659998     0.79800
Cd84       Cd  0.34324790  0.99573891  0.76680053     1.37500
O85         O  0.26365985  0.93652022  0.75016294    -0.55200
O86         O  0.35385546  0.01716414  0.80273003    -0.54000
C87         C  0.39380941  0.97592515  0.73577023     0.79700
O88         O  0.39220967  0.98339258  0.79203964    -0.56400
O89         O  0.26604997  0.92779630  0.78175450    -0.54800
O90         O  0.38379975  0.08630592  0.76436702    -0.54800
O91         O  0.36422766  0.94317724  0.74789699    -0.54000
O92         O  0.44351652  0.93101676  0.90439492    -0.55200
C93         C  0.29707868  0.86851848  0.89929350     0.77400
O94         O  0.39411019  0.02404759  0.92652784    -0.56400
C95         C  0.48317153  0.97233735  0.90735410     0.77400
C96         C  0.38919339  0.99988264  0.86343900     0.79800
Cd97       Cd  0.38853742  0.96217469  0.90257921     1.37500
O98         O  0.33590785  0.87152092  0.90598619    -0.55200
O99         O  0.40333163  0.97044933  0.86661383    -0.54000
C100        C  0.37015208  0.99270049  0.94011143     0.79700
O101        O  0.37747383  0.01484851  0.87860278    -0.56400
O102        O  0.30153482  0.90798643  0.89339153    -0.54800
O103        O  0.47917865  0.00930308  0.90822578    -0.54800
O104        O  0.35609138  0.94872693  0.93634069    -0.54000
O105        O  0.38116775  0.37020913  0.74953032    -0.55200
C106        C  0.39468624  0.33218540  0.81025066     0.77400
O107        O  0.27879854  0.26359773  0.75428241    -0.56400
C108        C  0.40777580  0.36565699  0.73687399     0.77400
C109        C  0.37393591  0.21618689  0.76531085     0.79800
Cd110      Cd  0.36228490  0.29828864  0.77008339     1.37500
O111        O  0.40957946  0.36224897  0.79582694    -0.55200
O112        O  0.41004033  0.25818514  0.77034042    -0.54000
C113        C  0.26069808  0.27389667  0.76878596     0.79700
O114        O  0.33265967  0.21231776  0.76213929    -0.56400
O115        O  0.36747323  0.28710253  0.80593744    -0.54800
O116        O  0.41780816  0.33341274  0.74061054    -0.54800
O117        O  0.28805068  0.29164065  0.78395445    -0.54000
O118        O  0.34322748  0.39765547  0.91407067    -0.55200
C119        C  0.48947443  0.44182732  0.91443046     0.77400
O120        O  0.35616816  0.27584191  0.92401429    -0.56400
C121        C  0.30493788  0.36564526  0.90467997     0.77400
C122        C  0.39653802  0.33227768  0.86725218     0.79800
Cd123      Cd  0.39024969  0.35760810  0.90786243     1.37500
O124        O  0.45182271  0.44545281  0.91321740    -0.55200
O125        O  0.40175354  0.37287656  0.87181108    -0.54000
C126        C  0.35659896  0.29038838  0.94149940     0.79700
O127        O  0.39094921  0.30400231  0.88154871    -0.56400
O128        O  0.48136968  0.39887642  0.91319547    -0.54800
O129        O  0.30679992  0.33126072  0.89673106    -0.54800
O130        O  0.37565055  0.33606978  0.94361710    -0.54000
O131        O  0.68966964  0.63680572  0.79803311    -0.55200
C132        C  0.68992079  0.65225300  0.73771389     0.77400
O133        O  0.79248339  0.77781827  0.76433315    -0.56400
C134        C  0.72025253  0.64730194  0.81210927     0.77400
C135        C  0.84798656  0.69737980  0.76640557     0.79800
Cd136      Cd  0.75448957  0.68996763  0.77279590     1.37500
O137        O  0.71242983  0.63217820  0.74401658    -0.55200
O138        O  0.80759257  0.65582908  0.76773476    -0.54000
C139        C  0.77176451  0.78618061  0.77848996     0.79700
O140        O  0.84465573  0.73476190  0.76700320    -0.56400
O141        O  0.69480017  0.68712714  0.74811152    -0.54800
O142        O  0.76582143  0.67333287  0.80756828    -0.54800
O143        O  0.74493591  0.75084754  0.79016427    -0.54000
O144        O  0.65855435  0.71476003  0.90534146    -0.55200
C145        C  0.59943203  0.57579348  0.91563965     0.77400
O146        O  0.75259543  0.66551992  0.88305174    -0.56400
C147        C  0.69847055  0.75381626  0.90021389     0.77400
C148        C  0.75128644  0.69238339  0.94515702     0.79800
Cd149      Cd  0.69449584  0.66449313  0.90834919     1.37500
O150        O  0.60495660  0.61765668  0.91482217    -0.55200
O151        O  0.71432509  0.69640120  0.94243951    -0.54000
C152        C  0.72144790  0.64991881  0.86891027     0.79700
O153        O  0.76075625  0.67192544  0.93130531    -0.56400
O154        O  0.63858445  0.57465334  0.91416817    -0.54800
O155        O  0.73663899  0.75141825  0.89827176    -0.54800
O156        O  0.67786804  0.63848989  0.87328981    -0.54000
C157        C  0.04332330  0.75926838  0.03172166     0.89100
C158        C  0.00144237  0.76888339  0.02870796    -0.51100
C159        C  0.00476146  0.79276611  0.01145327     0.12000
C160        C  0.05024646  0.80512038  0.99875903     0.23000
C161        C  0.04197019  0.73143785  0.01288320    -0.51900
C162        C  0.04581386  0.75562227  0.99550399     0.12100
C163        C  0.09163547  0.81021801  0.03005556    -0.51400
C164        C  0.09535172  0.83434203  0.01269015     0.12700
H165        H  0.97040497  0.75560859  0.03895582     0.17200
H166        H  0.05317188  0.82470312  0.98469665     0.02900
H167        H  0.03959326  0.69657669  0.01348856     0.17500
H168        H  0.12085112  0.82461654  0.04117356     0.17300
C169        C  0.07710276  0.23080230  0.99158895     0.89100
C170        C  0.02763649  0.18134299  0.99109831    -0.51100
C171        C  0.01767024  0.15351395  0.00797092     0.12000
C172        C  0.06002563  0.17771129  0.02353729     0.23000
C173        C  0.07565957  0.25566517  0.01066375    -0.51900
C174        C  0.06703860  0.22823079  0.02751866     0.12100
C175        C  0.11612761  0.21785809  0.99552318    -0.51400
C176        C  0.10758527  0.18998647  0.01220516     0.12700
H177        H  0.00283784  0.16974580  0.97839510     0.17200
H178        H  0.05271937  0.15520335  0.03714969     0.02900
H179        H  0.07970494  0.29131041  0.01047923     0.17500
H180        H  0.14907614  0.23149101  0.98631123     0.17300
C181        C  0.30778625  0.23659118  0.99405369     0.89100
C182        C  0.25297271  0.21930926  0.99204585    -0.51100
C183        C  0.22341957  0.18942778  0.00706710     0.12000
C184        C  0.25175693  0.17905322  0.02298514     0.23000
C185        C  0.32317157  0.26041121  0.01462572    -0.51900
C186        C  0.29447142  0.23039357  0.02992798     0.12100
C187        C  0.30791933  0.18926062  0.99601312    -0.51400
C188        C  0.27788546  0.15841638  0.01093662     0.12700
H189        H  0.23854425  0.22964433  0.97962090     0.17200
H190        H  0.22776538  0.15439646  0.03518189     0.02900
H191        H  0.35616364  0.29672720  0.01687831     0.17500
H192        H  0.32971407  0.18093257  0.98630890     0.17300
C193        C  0.79706735  0.99214721  0.98790659     0.89100
C194        C  0.81512360  0.95706349  0.98537632    -0.51100
C195        C  0.84867429  0.96213241  0.99928235     0.12000
C196        C  0.86226147  0.00325114  0.01454392     0.23000
C197        C  0.77749035  0.98393881  0.00926865    -0.51900
C198        C  0.81161495  0.99017064  0.02338147     0.12100
C199        C  0.84438619  0.04354112  0.98807873    -0.51400
C200        C  0.87912721  0.04965864  0.00168886     0.12700
H201        H  0.80145911  0.92946707  0.97373895     0.17200
H202        H  0.88971288  0.00761633  0.02586927     0.02900
H203        H  0.74091090  0.97684250  0.01283318     0.17500
H204        H  0.85038189  0.07246877  0.97787515     0.17300
C205        C  0.29885193  0.98431325  0.98792634     0.89100
C206        C  0.29266037  0.02764352  0.98451601    -0.51100
C207        C  0.27412088  0.03895275  0.00040133     0.12000
C208        C  0.26133912  0.00385951  0.01835069     0.23000
C209        C  0.33013276  0.99677106  0.00687680    -0.51900
C210        C  0.31026844  0.00640145  0.02300473     0.12100
C211        C  0.24695444  0.94187986  0.99389444    -0.51400
C212        C  0.22666493  0.95172398  0.00967905     0.12700
H213        H  0.30321149  0.04855128  0.97072938     0.17200
H214        H  0.24520558  0.01188433  0.03129521     0.02900
H215        H  0.36481347  0.99785047  0.00729648     0.17500
H216        H  0.22823918  0.90649228  0.98645505     0.17300
C217        C  0.80882174  0.76748454  0.99410873     0.89100
C218        C  0.86005168  0.77323296  0.99538760    -0.51100
C219        C  0.88784343  0.80012576  0.01139048     0.12000
C220        C  0.86194303  0.81894556  0.02459990     0.23000
C221        C  0.78404341  0.74574537  0.01434748    -0.51900
C222        C  0.81204360  0.77220994  0.03041400     0.12100
C223        C  0.82079087  0.82031084  0.99438398    -0.51400
C224        C  0.84852180  0.84760497  0.01031584     0.12700
H225        H  0.87268526  0.75612373  0.98524738     0.17200
H226        H  0.88458216  0.84078976  0.03756715     0.02900
H227        H  0.74880015  0.71085731  0.01564025     0.17500
H228        H  0.80641085  0.83411663  0.98327664     0.17300
O229        O  0.37962286  0.00456722  0.12674586    -0.55200
C230        C  0.39060422  0.02004024  0.06865358     0.77400
O231        O  0.48516685  0.14085628  0.08961643    -0.56400
C232        C  0.40617196  0.01088829  0.14184420     0.77400
C233        C  0.54084355  0.05750502  0.10018441     0.79800
Cd234      Cd  0.45131557  0.05838828  0.10411870     1.37500
O235        O  0.42278374  0.00993379  0.07313871    -0.55200
O236        O  0.49828851  0.01835272  0.09856332    -0.54000
C237        C  0.47613201  0.15837667  0.10460400     0.79700
O238        O  0.54183022  0.09680876  0.10306386    -0.56400
O239        O  0.38364544  0.04492306  0.08121484    -0.54800
O240        O  0.45270642  0.03668921  0.13923426    -0.54800
O241        O  0.45837198  0.13068376  0.11969329    -0.54000
O242        O  0.27074453  0.92606655  0.24393438    -0.55200
C243        C  0.34795309  0.07098779  0.23308123     0.77400
O244        O  0.43453547  0.01987871  0.25905369    -0.56400
C245        C  0.27531020  0.88935477  0.24384015     0.77400
C246        C  0.39270896  0.98982001  0.19816246     0.79800
Cd247      Cd  0.35840044  0.98883115  0.23806349     1.37500
O248        O  0.30999656  0.02820411  0.23576088    -0.55200
O249        O  0.34978156  0.98137131  0.20176213    -0.54000
C250        C  0.41473527  0.02289953  0.27488112     0.79700
O251        O  0.41928500  0.99467856  0.21311791    -0.56400
O252        O  0.38964975  0.07504669  0.23231869    -0.54800
O253        O  0.31905474  0.89838460  0.24165915    -0.54800
O254        O  0.36866582  0.00645692  0.27404485    -0.54000
O255        O  0.09774135  0.77451697  0.24892970    -0.55200
C256        C  0.96936027  0.70282474  0.23768122     0.77400
O257        O  0.03708912  0.62001523  0.21941419    -0.56400
C258        C  0.14010704  0.78003916  0.24758391     0.77400
C259        C  0.02081023  0.62410790  0.27787320     0.79800
Cd260      Cd  0.04861213  0.68587275  0.24257838     1.37500
O261        O  0.99757631  0.71852764  0.25271615    -0.55200
O262        O  0.06581850  0.65482095  0.27335021    -0.54000
C263        C  0.05593581  0.64850445  0.20456648     0.79700
O264        O  0.98865820  0.61881493  0.26537155    -0.56400
O265        O  0.97861359  0.68054164  0.22469057    -0.54800
O266        O  0.14075908  0.74147090  0.24479918    -0.54800
O267        O  0.07399805  0.69361972  0.20774658    -0.54000
O268        O  0.07284009  0.66129653  0.07985534    -0.55200
C269        C  0.05676912  0.64425122  0.14806802     0.77400
O270        O  0.92377868  0.57169351  0.10315999    -0.56400
C271        C  0.05109046  0.68307853  0.07482567     0.77400
C272        C  0.00726396  0.52555852  0.09907282     0.79800
Cd273      Cd  0.01433577  0.61570816  0.10865920     1.37500
O274        O  0.02176898  0.60092891  0.14410817    -0.55200
O275        O  0.04906469  0.56456819  0.10235225    -0.54000
C276        C  0.91780461  0.60082601  0.11357554     0.79700
O277        O  0.96947172  0.52893348  0.09939474    -0.56400
O278        O  0.07472235  0.67397675  0.13357792    -0.54800
O279        O  0.01537109  0.67529256  0.08576369    -0.54800
O280        O  0.95577535  0.63477664  0.12250072    -0.54000
O281        O  0.77503730  0.10558508  0.09964917    -0.55200
C282        C  0.63413878  0.01703131  0.10055492     0.77400
O283        O  0.78052261  0.01288677  0.08390083    -0.56400
C284        C  0.80881427  0.11456508  0.11209469     0.77400
C285        C  0.71028931  0.97570120  0.14735118     0.79800
Cd286      Cd  0.72323974  0.01700530  0.10793250     1.37500
O287        O  0.67616643  0.05659205  0.10259410    -0.55200
O288        O  0.69774501  0.00561314  0.14275901    -0.54000
C289        C  0.74671195  0.98097775  0.07275932     0.79700
O290        O  0.72585663  0.96124710  0.13329279    -0.56400
O291        O  0.63345301  0.97738836  0.10123239    -0.54800
O292        O  0.80218864  0.07902593  0.12266117    -0.54800
O293        O  0.70247418  0.96259942  0.07872036    -0.54000
O294        O  0.77452137  0.93681846  0.25376194    -0.55200
C295        C  0.84208823  0.06918742  0.24489535     0.77400
O296        O  0.68860984  0.98999826  0.21772836    -0.56400
C297        C  0.73443540  0.89576430  0.25095481     0.77400
C298        C  0.69471201  0.01014650  0.27639081     0.79800
Cd299      Cd  0.74074486  0.98708682  0.24449719     1.37500
O300        O  0.82579783  0.03695052  0.25845576    -0.55200
O301        O  0.68879121  0.96823005  0.27470577    -0.54000
C302        C  0.70676746  0.97745614  0.20397526     0.79700
O303        O  0.71820512  0.04031276  0.26248239    -0.56400
O304        O  0.81207388  0.06256535  0.23111916    -0.54800
O305        O  0.69665261  0.89683528  0.24590805    -0.54800
O306        O  0.73869601  0.96757354  0.20908835    -0.54000
O307        O  0.99017238  0.38370817  0.09638403    -0.55200
C308        C  0.91722096  0.24589249  0.10250863     0.77400
O309        O  0.03848104  0.27419815  0.08405470    -0.56400
C310        C  0.03293025  0.42273151  0.09791450     0.77400
C311        C  0.05508259  0.33453432  0.14224067     0.79800
Cd312      Cd  0.01871399  0.32777296  0.10258287     1.37500
O313        O  0.93189116  0.27983122  0.08971694    -0.55200
O314        O  0.02392313  0.34602316  0.13788917    -0.54000
C315        C  0.06053401  0.30397396  0.06989359     0.79700
O316        O  0.07173575  0.32176757  0.12799320    -0.56400
O317        O  0.94846731  0.25157233  0.11554970    -0.54800
O318        O  0.06933218  0.41770434  0.10071682    -0.54800
O319        O  0.06630423  0.34579872  0.07148459    -0.54000
O320        O  0.08849577  0.25694528  0.24558896    -0.55200
C321        C  0.95493178  0.19662627  0.23365685     0.77400
O322        O  0.06079465  0.35083611  0.26628344    -0.56400
C323        C  0.13039006  0.29714334  0.24638456     0.77400
C324        C  0.05265282  0.33404971  0.19872798     0.79800
Cd325      Cd  0.04028712  0.29405936  0.23809056     1.37500
O326        O  0.98659730  0.20629277  0.24721319    -0.55200
O327        O  0.06597174  0.30466494  0.20326330    -0.54000
C328        C  0.01653713  0.33269778  0.27212291     0.79700
O329        O  0.03650464  0.34799749  0.21274542    -0.56400
O330        O  0.96391522  0.23124855  0.22199052    -0.54800
O331        O  0.13046894  0.33616727  0.24402948    -0.54800
O332        O  0.98282214  0.29924271  0.26142907    -0.54000
O333        O  0.47089368  0.28988662  0.10100157    -0.55200
C334        C  0.51536547  0.43030481  0.10665727     0.77400
O335        O  0.38872992  0.34715006  0.08266844    -0.56400
C336        C  0.45835622  0.26316970  0.11645200     0.77400
C337        C  0.38979275  0.33378386  0.15004433     0.79800
Cd338      Cd  0.42891585  0.33278767  0.11146960     1.37500
O339        O  0.51926161  0.39316930  0.10766593    -0.55200
O340        O  0.43345331  0.36584664  0.14467497    -0.54000
C341        C  0.36410112  0.30314791  0.07670244     0.79700
O342        O  0.36180215  0.30309403  0.13695243    -0.56400
O343        O  0.47172454  0.42198419  0.10680242    -0.54800
O344        O  0.43486662  0.27052994  0.12964153    -0.54800
O345        O  0.36679621  0.27229681  0.08734247    -0.54000
O346        O  0.38665216  0.30445093  0.26033146    -0.55200
C347        C  0.32473082  0.28064371  0.19958594     0.77400
O348        O  0.26433500  0.15917828  0.23974877    -0.56400
C349        C  0.36799672  0.28040621  0.27632907     0.77400
C350        C  0.22287243  0.25634987  0.24871164     0.79800
Cd351      Cd  0.30742272  0.24969532  0.24057144     1.37500
O352        O  0.35588663  0.30762976  0.21287515    -0.55200
O353        O  0.26549292  0.29486942  0.24587743    -0.54000
C354        C  0.30328721  0.15943598  0.23558204     0.79700
O355        O  0.22035758  0.21580097  0.24885174    -0.56400
O356        O  0.28616104  0.24144354  0.20543220    -0.54800
O357        O  0.32253585  0.24640576  0.27574057    -0.54800
O358        O  0.34304436  0.20103735  0.23330014    -0.54000
O359        O  0.71239771  0.64766494  0.22574267    -0.55200
C360        C  0.72897573  0.64896183  0.28534218     0.77400
O361        O  0.85590543  0.74790677  0.26196415    -0.56400
C362        C  0.72748871  0.67659822  0.21093739     0.77400
C363        C  0.77103092  0.80062749  0.25514730     0.79800
Cd364      Cd  0.76951335  0.71122635  0.25023248     1.37500
O365        O  0.75923968  0.64693544  0.27388475    -0.55200
O366        O  0.73060327  0.75932273  0.25347220    -0.54000
C367        C  0.86719070  0.72739535  0.24884932     0.79700
O368        O  0.81074471  0.80046092  0.25539136    -0.56400
O369        O  0.71415951  0.67662425  0.27983950    -0.54800
O370        O  0.75972514  0.72119900  0.21448323    -0.54800
O371        O  0.83444341  0.70214619  0.23590669    -0.54000
O372        O  0.69256418  0.55110787  0.11057280    -0.55200
C373        C  0.82067868  0.63487084  0.11945918     0.77400
O374        O  0.70560112  0.66306710  0.08428650    -0.56400
C375        C  0.64888600  0.54242826  0.10918990     0.77400
C376        C  0.72300682  0.67198664  0.15413805     0.79800
Cd377      Cd  0.73380602  0.64022119  0.11495085     1.37500
O378        O  0.78151831  0.60046994  0.11134282    -0.55200
O379        O  0.71038466  0.62838888  0.15049738    -0.54000
C380        C  0.74849026  0.69453204  0.07776181     0.79700
O381        O  0.73701626  0.70080689  0.13934764    -0.56400
O382        O  0.81975514  0.67163486  0.12530589    -0.54800
O383        O  0.64433121  0.57920208  0.11002713    -0.54800
O384        O  0.78447204  0.70301906  0.08875712    -0.54000
C385        C  0.47007704  0.08759031  0.36364517     0.89100
C386        C  0.47378804  0.13655842  0.36056890    -0.51100
C387        C  0.48916656  0.15603052  0.34189707     0.12000
C388        C  0.49984819  0.12408973  0.32806342     0.23000
C389        C  0.43568332  0.05397569  0.34701066    -0.51900
C390        C  0.45139200  0.07260739  0.32833568     0.12100
C391        C  0.52173753  0.09821776  0.35817234    -0.51400
C392        C  0.53766395  0.11730248  0.33954008     0.12700
H393        H  0.46336786  0.15302239  0.37202957     0.17200
H394        H  0.51247737  0.13972888  0.31292791     0.02900
H395        H  0.40216260  0.01822923  0.34976883     0.17500
H396        H  0.54302647  0.08924354  0.36793398     0.17300
C397        C  0.15418270  0.43161765  0.66165249     0.89100
C398        C  0.20134608  0.43024370  0.66345576    -0.51100
C399        C  0.23284033  0.45887939  0.67839401     0.12000
C400        C  0.21367093  0.48657599  0.69022555     0.23000
C401        C  0.13036893  0.41705088  0.68240187    -0.51900
C402        C  0.16165959  0.44519347  0.69755564     0.12100
C403        C  0.17279980  0.48601152  0.65947265    -0.51400
C404        C  0.20358569  0.51504954  0.67434258     0.12700
H405        H  0.20941224  0.40946614  0.65319576     0.17200
H406        H  0.23918098  0.51010694  0.70227375     0.02900
H407        H  0.09355075  0.38464998  0.68481821     0.17500
H408        H  0.16210295  0.50041243  0.64717916     0.17300
C409        C  0.70095942  0.56641399  0.36719094     0.89100
C410        C  0.74539078  0.56120391  0.37035792    -0.51100
C411        C  0.75558935  0.54094292  0.35478024     0.12000
C412        C  0.71860689  0.52647865  0.33721696     0.23000
C413        C  0.71156933  0.59507313  0.34768476    -0.51900
C414        C  0.72027596  0.57405313  0.33183392     0.12100
C415        C  0.65753378  0.51416512  0.36229810    -0.51400
C416        C  0.66621570  0.49286323  0.34653681     0.12700
H417        H  0.76759798  0.57334527  0.38385175     0.17200
H418        H  0.72599786  0.50956818  0.32442933     0.02900
H419        H  0.71216592  0.62903850  0.34665835     0.17500
H420        H  0.62203731  0.49679312  0.37000694     0.17300
C421        C  0.46841633  0.32426916  0.31792213     0.89100
C422        C  0.46993487  0.27807988  0.32174346    -0.51100
C423        C  0.48891066  0.27707775  0.33985477     0.12000
C424        C  0.50413325  0.32285026  0.35268443     0.23000
C425        C  0.43956011  0.32738973  0.33552574    -0.51900
C426        C  0.45753529  0.32611486  0.35370035     0.12100
C427        C  0.52243820  0.36758796  0.32120008    -0.51400
C428        C  0.54117356  0.36737583  0.33961893     0.12700
H429        H  0.45585448  0.24836823  0.31106584     0.17200
H430        H  0.51923401  0.32243688  0.36752439     0.02900
H431        H  0.40813515  0.33171256  0.33371052     0.17500
H432        H  0.54224889  0.39733534  0.31055465     0.17300
C433        C  0.95443418  0.56945742  0.36098927     0.89100
C434        C  0.93925026  0.51592230  0.36289426    -0.51100
C435        C  0.90925713  0.48599626  0.34803419     0.12000
C436        C  0.89607774  0.51294336  0.33245417     0.23000
C437        C  0.97750357  0.58547881  0.34025842    -0.51900
C438        C  0.94717073  0.55644537  0.32513560     0.12100
C439        C  0.90548514  0.56757793  0.35958425    -0.51400
C440        C  0.87401169  0.53749193  0.34487940     0.12700
H441        H  0.95196934  0.50281950  0.37496706     0.17200
H442        H  0.87120612  0.48888600  0.32037335     0.02900
H443        H  0.01369557  0.61875972  0.33783370     0.17500
H444        H  0.89730462  0.58927361  0.36926934     0.17300
C445        C  0.60625293  0.64164249  0.65637698     0.89100
C446        C  0.61411423  0.69308353  0.65618852    -0.51100
C447        C  0.59686436  0.70393389  0.67279190     0.12000
C448        C  0.57272948  0.66132757  0.68788693     0.23000
C449        C  0.63044740  0.63920711  0.67575133    -0.51900
C450        C  0.61312834  0.64980456  0.69239477     0.12100
C451        C  0.54986220  0.60660257  0.65960989    -0.51400
C452        C  0.53168123  0.61690114  0.67599077     0.12700
H453        H  0.63030005  0.71747397  0.64349253     0.17200
H454        H  0.55849126  0.66976412  0.70136779     0.02900
H455        H  0.66024223  0.63220207  0.67601813     0.17500
H456        H  0.52620601  0.58179734  0.64811958     0.17300
C457        C  0.64877340  0.91680371  0.65130794     0.89100
C458        C  0.59303118  0.89690991  0.65217790    -0.51100
C459        C  0.56801242  0.86415429  0.66717497     0.12000
C460        C  0.60132019  0.85303171  0.67990972     0.23000
C461        C  0.66821572  0.93728788  0.67205244    -0.51900
C462        C  0.64377960  0.90418690  0.68714357     0.12100
C463        C  0.65142037  0.87070188  0.64993049    -0.51400
C464        C  0.62677468  0.83707892  0.66472044     0.12700
H465        H  0.57480452  0.90840869  0.64187003     0.17200
H466        H  0.58112807  0.82629549  0.69209946     0.02900
H467        H  0.70011392  0.97426705  0.67432532     0.17500
H468        H  0.67015823  0.86387768  0.63816382     0.17300
C469        C  0.40529044  0.43522675  0.65524468     0.89100
C470        C  0.43508795  0.49202395  0.65593735    -0.51100
C471        C  0.42598366  0.51089641  0.67250113     0.12000
C472        C  0.38658441  0.47089263  0.68641486     0.23000
C473        C  0.41643296  0.41938120  0.67511291    -0.51900
C474        C  0.40612615  0.43756250  0.69153469     0.12100
C475        C  0.35058878  0.41999548  0.65714630    -0.51400
C476        C  0.34096091  0.43914720  0.67316972     0.12700
H477        H  0.45566576  0.51407787  0.64320088     0.17200
H478        H  0.37811137  0.48570907  0.69966038     0.02900
H479        H  0.42850422  0.39366680  0.67585661     0.17500
H480        H  0.32117994  0.39700452  0.64679602     0.17300
C481        C  0.14757702  0.64966077  0.66315187     0.89100
C482        C  0.16557515  0.61446630  0.66595244    -0.51100
C483        C  0.19826906  0.62617458  0.68131760     0.12000
C484        C  0.21032031  0.67320614  0.69253694     0.23000
C485        C  0.12604294  0.65043749  0.68338784    -0.51900
C486        C  0.15847439  0.66233930  0.69894072     0.12100
C487        C  0.19509916  0.70026524  0.66093034    -0.51400
C488        C  0.22817047  0.71333618  0.67612659     0.12700
H489        H  0.15162113  0.58146668  0.65707926     0.17200
H490        H  0.23680550  0.68322895  0.70505611     0.02900
H491        H  0.08863872  0.64294544  0.68509247     0.17500
H492        H  0.20205414  0.72418563  0.64827231     0.17300
C493        C  0.41680497  0.90095462  0.65900674     0.89100
C494        C  0.36879308  0.85014292  0.66057630    -0.51100
C495        C  0.36420754  0.82545304  0.67795595     0.12000
C496        C  0.40967917  0.85422899  0.69187490     0.23000
C497        C  0.41787827  0.92823901  0.67777508    -0.51900
C498        C  0.41368571  0.90388069  0.69512375     0.12100
C499        C  0.45851773  0.89139845  0.66185681    -0.51400
C500        C  0.45526113  0.86672316  0.67887285     0.12700
H501        H  0.34124843  0.83526512  0.64879281     0.17200
H502        H  0.40662292  0.83438449  0.70586183     0.02900
H503        H  0.41864442  0.96229859  0.67708395     0.17500
H504        H  0.48905477  0.90413624  0.65137132     0.17300
C505        C  0.70353970  0.08893142  0.35550577     0.89100
C506        C  0.66174254  0.09870067  0.35698045    -0.51100
C507        C  0.65864110  0.12342160  0.34118492     0.12000
C508        C  0.69831741  0.13623976  0.32494273     0.23000
C509        C  0.69522800  0.06206217  0.33584292    -0.51900
C510        C  0.69240422  0.08637277  0.31962793     0.12100
C511        C  0.75043821  0.13963767  0.35226243    -0.51400
C512        C  0.74844526  0.16497253  0.33624124     0.12700
H513        H  0.63766540  0.08858038  0.36991944     0.17200
H514        H  0.69615346  0.15659830  0.31203885     0.02900
H515        H  0.69477112  0.02818884  0.33494317     0.17500
H516        H  0.78166055  0.15488058  0.36248009     0.17300
C517        C  0.95894937  0.34081313  0.35510935     0.89100
C518        C  0.90944925  0.29099150  0.35576197    -0.61900
C519        C  0.87804515  0.28283487  0.34037145     0.12000
C520        C  0.89851805  0.32653293  0.32567685     0.23000
C521        C  0.98034203  0.34241561  0.33449003    -0.51900
C522        C  0.94888831  0.33480566  0.31902534     0.12100
C523        C  0.94417138  0.37879921  0.35396817    -0.51400
C524        C  0.91281464  0.37210468  0.33859102     0.12700
H525        H  0.90043752  0.26225527  0.36647830     0.17200
H526        H  0.87297861  0.32026931  0.31316709     0.02900
H527        H  0.01634525  0.34669027  0.33253294     0.17500
H528        H  0.95976752  0.41020513  0.36388638     0.17300
O529        O  0.51691012  0.37192012  0.57875122    -0.55200
C530        C  0.40979440  0.22847857  0.58819859     0.77400
O531        O  0.36877111  0.33907866  0.59299591    -0.56400
C532        C  0.52195007  0.40498847  0.56691033     0.77400
C533        C  0.39321834  0.30241443  0.53436390     0.79800
Cd534      Cd  0.42603889  0.32112816  0.57528056     1.37500
O535        O  0.45299356  0.26642452  0.58602823    -0.55200
O536        O  0.42257391  0.29108975  0.54148474    -0.54000
C537        C  0.39871446  0.36311566  0.60702546     0.79700
O538        O  0.37551494  0.31939130  0.54649726    -0.56400
O539        O  0.37352200  0.23377618  0.58548182    -0.54800
O540        O  0.48317573  0.39788416  0.55845301    -0.54800
O541        O  0.44011161  0.36645922  0.60663252    -0.54000
O542        O  0.34639339  0.40550015  0.43073857    -0.55200
C543        C  0.48104363  0.45745596  0.44792824     0.77400
O544        O  0.38353499  0.31286547  0.46999133    -0.56400
C545        C  0.30287222  0.36762695  0.43054584     0.77400
C546        C  0.41544891  0.32916044  0.40713279     0.79800
Cd547      Cd  0.38916827  0.36569477  0.44135919     1.37500
O548        O  0.44289221  0.45568183  0.44132941    -0.55200
O549        O  0.41308003  0.36707105  0.40672621    -0.54000
C550        C  0.36868808  0.33217596  0.48228256     0.79700
O551        O  0.40276562  0.30520666  0.42332759    -0.56400
O552        O  0.47666862  0.41686165  0.45165532    -0.54800
O553        O  0.29849867  0.32684606  0.43442004    -0.54800
O554        O  0.36040614  0.36357936  0.47534644    -0.54000
O555        O  0.07313190  0.68458907  0.60730504    -0.55200
C556        C  0.05140571  0.66631096  0.54221388     0.77400
O557        O  0.98822301  0.53493272  0.57767118    -0.56400
C558        C  0.07084236  0.65256095  0.61907786     0.77400
C559        C  0.92527436  0.61040428  0.58803644     0.79800
Cd560      Cd  0.01999169  0.62281611  0.58127206     1.37500
O561        O  0.08182354  0.68181542  0.55660923    -0.55200
O562        O  0.96481096  0.65272752  0.58705161    -0.54000
C563        C  0.03034107  0.54215058  0.57306343     0.79700
O564        O  0.92980332  0.57380382  0.58654442    -0.56400
O565        O  0.00644648  0.63466372  0.54634083    -0.54800
O566        O  0.04408694  0.60830787  0.61364288    -0.54800
O567        O  0.06644246  0.58623416  0.57166234    -0.54000
O568        O  0.16630348  0.70542122  0.43978042    -0.55200
C569        C  0.09358758  0.56892458  0.44980115     0.77400
O570        O  0.02118854  0.64916623  0.47125409    -0.56400
C571        C  0.16551962  0.74423100  0.43958930     0.77400
C572        C  0.00910504  0.61682062  0.41335747     0.79800
Cd573      Cd  0.07859994  0.64943693  0.44628334     1.37500
O574        O  0.11637735  0.60194751  0.43676301    -0.55200
O575        O  0.05549487  0.64519178  0.41075152    -0.54000
C576        C  0.05148868  0.66277701  0.48562977     0.79700
O577        O  0.99447821  0.60667305  0.43117420    -0.56400
O578        O  0.06529269  0.57382231  0.46134555    -0.54800
O579        O  0.12358580  0.73952565  0.44184480    -0.54800
O580        O  0.09470250  0.67238519  0.48162494    -0.54000
O581        O  0.39309265  0.91095249  0.43909569    -0.55200
C582        C  0.26520939  0.88073221  0.44154763     0.77400
O583        O  0.38325358  0.03039011  0.47208529    -0.56400
C584        C  0.43481268  0.93804225  0.44748301     0.77400
C585        C  0.39422492  0.02623478  0.41157822     0.79800
Cd586      Cd  0.36301837  0.96548083  0.44698597     1.37500
O587        O  0.30446684  0.88013493  0.43983488    -0.55200
O588        O  0.42091666  0.01400572  0.42046318    -0.54000
C589        C  0.37102353  0.00186427  0.48692435     0.79700
O590        O  0.35280938  0.01276231  0.41962286    -0.56400
O591        O  0.27066428  0.92191451  0.44518715    -0.54800
O592        O  0.44187391  0.97603328  0.45622870    -0.54800
O593        O  0.35235382  0.95688555  0.48316202    -0.54000
O594        O  0.37418103  0.97809889  0.55794071    -0.55200
C595        C  0.40358811  0.97399913  0.61616995     0.77400
O596        O  0.52613466  0.09183288  0.58258487    -0.56400
C597        C  0.38782218  0.00743875  0.54335219     0.77400
C598        C  0.43647366  0.12706325  0.59249655     0.79800
Cd599      Cd  0.43427930  0.03951532  0.58205417     1.37500
O600        O  0.37725009  0.99055681  0.61059922    -0.55200
O601        O  0.39595825  0.08796756  0.58788220    -0.54000
C602        C  0.53243384  0.05973365  0.57488531     0.79700
O603        O  0.47469571  0.12448823  0.59359443    -0.56400
O604        O  0.44161505  0.98656655  0.60580204    -0.54800
O605        O  0.42112375  0.05176385  0.54680618    -0.54800
O606        O  0.49363174  0.01972043  0.56973167    -0.54000
O607        O  0.95288717  0.27935237  0.57713891    -0.55200
C608        C  0.01485684  0.41657927  0.57353063     0.77400
O609        O  0.12103902  0.38581800  0.59146489    -0.56400
C610        C  0.95787375  0.24311292  0.57878440     0.77400
C611        C  0.06901702  0.34208897  0.53364707     0.79800
Cd612      Cd  0.03922134  0.34289332  0.57433153     1.37500
O613        O  0.98353807  0.37329608  0.57923693    -0.55200
O614        O  0.02634287  0.33295747  0.53820150    -0.54000
C615        C  0.10379467  0.37989826  0.60889988     0.79700
O616        O  0.09823531  0.34996241  0.54797668    -0.56400
O617        O  0.05676642  0.42531502  0.56787150    -0.54800
O618        O  0.00210862  0.25271723  0.57962286    -0.54800
O619        O  0.05695668  0.35304233  0.61060612    -0.54000
O620        O  0.03657625  0.32168782  0.46253129    -0.55200
C621        C  0.02713834  0.33617307  0.40290043     0.77400
O622        O  0.14265126  0.45812228  0.42638914    -0.56400
C623        C  0.06751350  0.34211459  0.47662400     0.77400
C624        C  0.17284138  0.34699175  0.43055777     0.79800
Cd625      Cd  0.09702874  0.36963352  0.43572870     1.37500
O626        O  0.01782549  0.31025457  0.41841779    -0.55200
O627        O  0.12786134  0.31329993  0.43344926    -0.54000
C628        C  0.11775758  0.46777162  0.43804659     0.79700
O629        O  0.18204736  0.39029522  0.42907366    -0.56400
O630        O  0.06941461  0.37559386  0.40210645    -0.54800
O631        O  0.11197770  0.37402783  0.47178293    -0.54800
O632        O  0.08592109  0.43298356  0.44893398    -0.54000
O633        O  0.64618037  0.73056678  0.43758520    -0.55200
C634        C  0.58346370  0.59354691  0.44741815     0.77400
O635        O  0.74511949  0.68421062  0.42200500    -0.56400
C636        C  0.68736642  0.77110983  0.43587783     0.77400
C637        C  0.70941011  0.68700842  0.48659138     0.79800
Cd638      Cd  0.68045864  0.68046973  0.44522433     1.37500
O639        O  0.58968144  0.63370493  0.44129513    -0.55200
O640        O  0.68268087  0.70226173  0.48027279    -0.54000
C641        C  0.71262141  0.65103609  0.41066070     0.79700
O642        O  0.72614838  0.67099060  0.47359309    -0.56400
O643        O  0.62167215  0.59457039  0.45355818    -0.54800
O644        O  0.72635539  0.76986190  0.43760183    -0.54800
O645        O  0.66780693  0.63391612  0.41520152    -0.54000
O646        O  0.78076844  0.59169350  0.58772625    -0.55200
C647        C  0.65028071  0.51702910  0.57595100     0.77400
O648        O  0.66034490  0.61357955  0.60102110    -0.56400
C649        C  0.82017584  0.63410064  0.58711577     0.77400
C650        C  0.73519097  0.65114678  0.53749176     0.79800
Cd651      Cd  0.72500926  0.61883831  0.57853147     1.37500
O652        O  0.68520801  0.53225118  0.58847394    -0.55200
O653        O  0.74964563  0.62387061  0.54371628    -0.54000
C654        C  0.68936308  0.64903668  0.61216794     0.79700
O655        O  0.71752527  0.66636297  0.55045573    -0.56400
O656        O  0.65145447  0.54865794  0.56435007    -0.54800
O657        O  0.81526018  0.66995242  0.58367332    -0.54800
O658        O  0.73460733  0.67376822  0.60689635    -0.54000
O659        O  0.69821861  0.01673516  0.41145126    -0.55200
C660        C  0.70818843  0.99695389  0.47217203     0.77400
O661        O  0.55837673  0.91772832  0.44042048    -0.56400
C662        C  0.66499289  0.99569893  0.39818114     0.77400
C663        C  0.64933630  0.86528033  0.43398111     0.79800
Cd664      Cd  0.64897421  0.95368805  0.43724572     1.37500
O665        O  0.71760044  0.02241847  0.45648495    -0.55200
O666        O  0.68825649  0.90674155  0.43020130    -0.54000
C667        C  0.56276773  0.95518419  0.44861257     0.79700
O668        O  0.61064307  0.86499410  0.43863576    -0.56400
O669        O  0.67422610  0.95187062  0.47106058    -0.54800
O670        O  0.62667281  0.95486191  0.40273245    -0.54800
O671        O  0.60645172  0.99057123  0.45218871    -0.54000
O672        O  0.78211005  0.13232881  0.56947070    -0.55200
C673        C  0.63738010  0.03688010  0.56690019     0.77400
O674        O  0.72228147  0.98306934  0.54268812    -0.56400
C675        C  0.82292412  0.13587048  0.57303755     0.77400
C676        C  0.71640223  0.98744651  0.60299142     0.79800
Cd677      Cd  0.73113828  0.04346546  0.56750838     1.37500
O678        O  0.67753325  0.07712892  0.57069001    -0.55200
O679        O  0.70566428  0.01993152  0.60197048    -0.54000
C680        C  0.73114416  0.01051799  0.52774909     0.79700
O681        O  0.73713658  0.98259463  0.58787783    -0.56400
O682        O  0.64084059  0.00041760  0.56310651    -0.54800
O683        O  0.82201883  0.09612806  0.57419001    -0.54800
O684        O  0.74325751  0.05413336  0.53122501    -0.54000
C685        C  0.73254481  0.01921417  0.49125534    -0.13800
C686        C  0.72360027  0.99100139  0.50742696    -0.29000
H687        H  0.75263752  0.05899233  0.49259645     0.15200
H688        H  0.70436723  0.95131003  0.50589412     0.15800
C689        C  0.71764870  0.68615584  0.50819516    -0.13800
C690        C  0.73728055  0.66186004  0.51598589    -0.29000
H691        H  0.70242460  0.70163808  0.51801899     0.15200
H692        H  0.75140466  0.64534331  0.50614412     0.15800
C693        C  0.68976473  0.81771338  0.43280306    -0.13800
C694        C  0.64831193  0.81909427  0.43365059    -0.29000
H695        H  0.72605278  0.85152686  0.43134632     0.15200
H696        H  0.61231419  0.78524116  0.43573521     0.15800
C697        C  0.91383153  0.19238548  0.57887932    -0.13800
C698        C  0.86852364  0.18462597  0.57534027    -0.29000
H699        H  0.91873066  0.16169015  0.58067506     0.15200
H700        H  0.86444298  0.21580341  0.57333492     0.15800
C701        C  0.08464071  0.34572053  0.51269152    -0.13800
C702        C  0.05176527  0.33077476  0.49762481    -0.29000
H703        H  0.12413911  0.36329088  0.50955984     0.15200
H704        H  0.01213168  0.31152699  0.50079500     0.15800
C705        C  0.58246976  0.06808060  0.57267241    -0.13800
C706        C  0.58848252  0.03154773  0.56715126    -0.29000
H707        H  0.61450981  0.10375097  0.57674143     0.15200
H708        H  0.55618620  0.99562344  0.56352773     0.15800
C709        C  0.51997901  0.95922250  0.45317335    -0.13800
C710        C  0.47410751  0.92713244  0.44626426    -0.29000
H711        H  0.52754204  0.99214821  0.46088417     0.15200
H712        H  0.46657614  0.89480688  0.43807850     0.15800
C713        C  0.38097061  0.02050877  0.50752398    -0.13800
C714        C  0.36776822  0.98990038  0.52321615    -0.29000
H715        H  0.40340981  0.06006578  0.50971401     0.15200
H716        H  0.34479959  0.95037642  0.52099084     0.15800
C717        C  0.09743756  0.52556496  0.45127688    -0.13800
C718        C  0.12364519  0.51635503  0.43836268    -0.29000
H719        H  0.07477308  0.49848748  0.46257538     0.15200
H720        H  0.14653970  0.54318314  0.42703308     0.15800
C721        C  0.21219265  0.79202223  0.43747665    -0.13800
C722        C  0.21578681  0.83508854  0.44016733    -0.29000
H723        H  0.24563083  0.79131247  0.43514310     0.15200
H724        H  0.18276936  0.83631572  0.44282934     0.15800
C725        C  0.03842805  0.50191240  0.57001373    -0.13800
C726        C  0.00330429  0.45500399  0.57401840    -0.29000
H727        H  0.07555629  0.51171334  0.56561379     0.15200
H728        H  0.96645647  0.44512181  0.57886863     0.15800
C729        C  0.87588410  0.60348440  0.59001261    -0.13800
C730        C  0.86976527  0.64159209  0.58929759    -0.29000
H731        H  0.84366415  0.56604064  0.59041632     0.15200
H732        H  0.90195223  0.67898837  0.58845770     0.15800
C733        C  0.06822464  0.68098130  0.52146240    -0.13800
C734        C  0.03582306  0.66369197  0.50619946    -0.29000
H735        H  0.10801164  0.70085359  0.51855024     0.15200
H736        H  0.99607780  0.64467810  0.50910280     0.15800
C737        C  0.52865363  0.50411894  0.45085698    -0.13800
C738        C  0.53435194  0.54760283  0.44663338    -0.29000
H739        H  0.56021719  0.50246050  0.45590062     0.15200
H740        H  0.50296696  0.54926788  0.44135044     0.15800
C741        C  0.26026829  0.37283467  0.42685776    -0.13800
C742        C  0.21273729  0.33652484  0.42992457    -0.29000
H743        H  0.26892865  0.40959422  0.42335730     0.15200
H744        H  0.20357414  0.29971706  0.43364308     0.15800
C745        C  0.56965587  0.45115030  0.56370904    -0.13800
C746        C  0.60872031  0.46549035  0.57570594    -0.29000
H747        H  0.57048912  0.47653742  0.55279644     0.15200
H748        H  0.60764253  0.44069747  0.58697250     0.15800
C749        C  0.44068830  0.17453990  0.59501713    -0.13800
C750        C  0.40195030  0.17979258  0.59226635    -0.29000
H751        H  0.47795243  0.20690778  0.59673133     0.15200
H752        H  0.36455630  0.14759843  0.59065397     0.15800
C753        C  0.38361584  0.29874523  0.51272225    -0.13800
C754        C  0.36387093  0.32187868  0.50387758    -0.29000
H755        H  0.39955797  0.28266033  0.50365405     0.15200
H756        H  0.34987845  0.33976251  0.51297441     0.15800
C757        C  0.99645494  0.35185240  0.37162935    -0.13800
C758        C  0.98991620  0.32145231  0.38688454    -0.29000
H759        H  0.03100800  0.38763741  0.37088241     0.15200
H760        H  0.95612318  0.28574222  0.38850165     0.15800
C761        C  0.66837617  0.01787769  0.37865535    -0.13800
C762        C  0.70654288  0.06268442  0.37355619    -0.29000
H763        H  0.63630189  0.99872790  0.36886204     0.15200
H764        H  0.73878642  0.08193066  0.38325542     0.15800
C765        C  0.78962649  0.21673981  0.33185762    -0.13800
C766        C  0.83655889  0.23145775  0.33687412    -0.29000
H767        H  0.78074887  0.24305473  0.32658053     0.15200
H768        H  0.84397904  0.20365569  0.34156790     0.15800
C769        C  0.42280538  0.92847768  0.63989255    -0.13800
C770        C  0.39191095  0.94279688  0.63406733    -0.29000
H771        H  0.45509538  0.93848587  0.63073788     0.15200
H772        H  0.35948122  0.93343998  0.64297474     0.15800
C773        C  0.11193907  0.63548602  0.64585262    -0.13800
C774        C  0.09930515  0.66579066  0.63784558    -0.29000
H775        H  0.09921864  0.60052249  0.63863371     0.15200
H776        H  0.11380691  0.70206356  0.64409115     0.15800
C777        C  0.31902621  0.77628066  0.68296513    -0.13800
C778        C  0.27425737  0.76324461  0.67556497    -0.29000
H779        H  0.32290313  0.75093108  0.69226515     0.15200
H780        H  0.27153538  0.79014253  0.66683933     0.15800
C781        C  0.41790344  0.41443443  0.63739446    -0.13800
C782        C  0.38543113  0.38548528  0.62304154    -0.29000
H783        H  0.45588969  0.42300195  0.63668636     0.15200
H784        H  0.34776686  0.37713098  0.62258886     0.15800
C785        C  0.67433755  0.95544031  0.63512362    -0.13800
C786        C  0.70277707  0.95480878  0.62041087    -0.29000
H787        H  0.66654749  0.98445512  0.63517041     0.15200
H788        H  0.71315626  0.92788090  0.62004717     0.15800
C789        C  0.51382666  0.84276992  0.66947387    -0.13800
C790        C  0.49521026  0.85738013  0.68393435    -0.29000
H791        H  0.49245299  0.82880842  0.65581668     0.15200
H792        H  0.51591699  0.87293850  0.69759832     0.15800
C793        C  0.62497277  0.63068472  0.63754174    -0.13800
C794        C  0.67186683  0.66024795  0.63063947    -0.29000
H795        H  0.59882014  0.59824270  0.62906158     0.15200
H796        H  0.69828317  0.69271777  0.63903062     0.15800
C797        C  0.59759061  0.75047183  0.67560128    -0.13800
C798        C  0.62702002  0.79093698  0.66460753    -0.29000
H799        H  0.57281890  0.75068420  0.68661553     0.15200
H800        H  0.65261368  0.79035878  0.65414166     0.15800
C801        C  0.43600243  0.56146369  0.67398077    -0.13800
C802        C  0.47946923  0.60455700  0.67711337    -0.29000
H803        H  0.40267572  0.56257818  0.67590246     0.15200
H804        H  0.47616181  0.63546279  0.68091903     0.15800
C805        C  0.97378312  0.59388133  0.39667731    -0.13800
C806        C  0.98869179  0.60150823  0.37757137    -0.29000
H807        H  0.93521608  0.56640123  0.40023064     0.15200
H808        H  0.02715520  0.62924370  0.37397043     0.15800
C809        C  0.90146137  0.41050765  0.33371592    -0.13800
C810        C  0.89332821  0.43335389  0.34856313    -0.29000
H811        H  0.90855004  0.42534421  0.31872332     0.15200
H812        H  0.88709493  0.41732587  0.36334963     0.15800
C813        C  0.43765526  0.33576675  0.37184346    -0.13800
C814        C  0.43347363  0.31492287  0.38968052    -0.29000
H815        H  0.42419216  0.36030061  0.37011647     0.15200
H816        H  0.44365281  0.28786531  0.39146631     0.15800
C817        C  0.69053070  0.58919358  0.38465180    -0.13800
C818        C  0.72532197  0.63216316  0.39312816    -0.29000
H819        H  0.65326932  0.56869704  0.39095796     0.15200
H820        H  0.76331693  0.65227132  0.38759303     0.15800
C821        C  0.82436201  0.53118111  0.34121648    -0.13800
C822        C  0.79943649  0.53598195  0.35632910    -0.29000
H823        H  0.80983482  0.52478671  0.32618942     0.15200
H824        H  0.81429017  0.54018528  0.37124272     0.15800
C825        C  0.58764457  0.41002560  0.34822201    -0.13800
C826        C  0.62607598  0.44563931  0.33745799    -0.29000
H827        H  0.58896789  0.41297062  0.36430454     0.15200
H828        H  0.62728082  0.44136123  0.32152391     0.15800
C829        C  0.12012920  0.40029543  0.64482564    -0.13800
C830        C  0.13693105  0.40540722  0.62601595    -0.29000
H831        H  0.08108264  0.37385561  0.64806260     0.15200
H832        H  0.17614956  0.43145208  0.62290248     0.15800
C833        C  0.29055928  0.42996086  0.67595011    -0.13800
C834        C  0.28186538  0.46448546  0.68199832    -0.29000
H835        H  0.26012397  0.39547262  0.67006554     0.15200
H836        H  0.31179613  0.49881832  0.68820237     0.15800
C837        C  0.21251020  0.59095670  0.68770747    -0.13800
C838        C  0.22361549  0.56851686  0.67372984    -0.29000
H839        H  0.20185959  0.57538111  0.70254956     0.15200
H840        H  0.23275347  0.58489670  0.65895550     0.15800
C841        C  0.41017040  0.05317351  0.39247009    -0.13800
C842        C  0.45401827  0.06565305  0.38422094    -0.29000
H843        H  0.38491676  0.06042038  0.38459471     0.15200
H844        H  0.47884470  0.05826459  0.39239648     0.15800
C845        C  0.58411894  0.12400630  0.33098639    -0.13800
C846        C  0.62445827  0.14118398  0.34258235    -0.29000
H847        H  0.58205478  0.10702239  0.31680492     0.15200
H848        H  0.62447411  0.15711874  0.35681620     0.15800
C849        C  0.49151247  0.20125219  0.33483637    -0.13800
C850        C  0.49208182  0.23490536  0.34707890    -0.29000
H851        H  0.49250777  0.20644087  0.31887607     0.15200
H852        H  0.49513690  0.23202848  0.36300710     0.15800
C853        C  0.71344643  0.62270574  0.30461348    -0.13800
C854        C  0.73050455  0.59485360  0.31133985    -0.29000
H855        H  0.68930185  0.62867953  0.31392366     0.15200
H856        H  0.75265329  0.58697594  0.30163850     0.15800
C857        C  0.71097771  0.65855883  0.19045020    -0.13800
C858        C  0.72520936  0.68928334  0.17470662    -0.29000
H859        H  0.69116579  0.61909742  0.18807969     0.15200
H860        H  0.74426296  0.72870050  0.17707655     0.15800
C861        C  0.39615727  0.28849065  0.29495383    -0.13800
C862        C  0.44467153  0.32297770  0.29804464    -0.29000
H863        H  0.37537518  0.26278748  0.30694091     0.15200
H864        H  0.46658965  0.34964198  0.28652535     0.15800
C865        C  0.60579284  0.49157208  0.10723160    -0.13800
C866        C  0.55896988  0.48115523  0.10605357    -0.29000
H867        H  0.61266540  0.46195623  0.10764640     0.15200
H868        H  0.55215831  0.51081322  0.10574676     0.15800
C869        C  0.33300954  0.29167297  0.17813522    -0.13800
C870        C  0.37475336  0.33093660  0.17097723    -0.29000
H871        H  0.30630157  0.26381841  0.16794977     0.15200
H872        H  0.40184936  0.35838461  0.18117421     0.15800
C873        C  0.00578605  0.34799547  0.29109835    -0.13800
C874        C  0.95920530  0.32813435  0.29813289    -0.29000
H875        H  0.03743166  0.37358493  0.30016773     0.15200
H876        H  0.92755121  0.30430209  0.28869915     0.15800
C877        C  0.17724529  0.29872310  0.24892695    -0.13800
C878        C  0.17732095  0.25727069  0.25073751    -0.29000
H879        H  0.21214679  0.33404853  0.24763141     0.15200
H880        H  0.14225886  0.22206361  0.25196285     0.15800
C881        C  0.06876124  0.33301879  0.16301125    -0.13800
C882        C  0.05248450  0.34852596  0.17797231    -0.29000
H883        H  0.08817965  0.31441497  0.16617272     0.15200
H884        H  0.03371245  0.36774586  0.17476290     0.15800
C885        C  0.89287253  0.11312364  0.24553778    -0.13800
C886        C  0.90856362  0.14837982  0.23165529    -0.29000
H887        H  0.91618946  0.11817754  0.25826748     0.15200
H888        H  0.88464133  0.14341791  0.21915218     0.15800
C889        C  0.67827221  0.02348539  0.29450175    -0.13800
C890        C  0.69270029  0.07025383  0.29887021    -0.29000
H891        H  0.65925246  0.99482775  0.30563744     0.15200
H892        H  0.71014250  0.09855121  0.28749728     0.15800
C893        C  0.73172882  0.84879194  0.25283867    -0.13800
C894        C  0.77246396  0.84706946  0.25611195    -0.29000
H895        H  0.69598482  0.81506031  0.25023863     0.15200
H896        H  0.80843170  0.88088871  0.25822222     0.15800
C897        C  0.85472263  0.16321536  0.11414631    -0.13800
C898        C  0.86703276  0.20092820  0.10180086    -0.29000
H899        H  0.88089955  0.16690105  0.12547091     0.15200
H900        H  0.84157731  0.19730264  0.09016560     0.15800
C901        C  0.71034349  0.96161834  0.16825711    -0.13800
C902        C  0.69367435  0.97755717  0.18295114    -0.29000
H903        H  0.72931041  0.94275670  0.17179721     0.15200
H904        H  0.67389904  0.99557940  0.17935205     0.15800
C905        C  0.86590190  0.63349681  0.12167850    -0.13800
C906        C  0.86952391  0.59680260  0.11434823    -0.29000
H907        H  0.89814642  0.66521651  0.12843047     0.15200
H908        H  0.83773798  0.56557470  0.10715119     0.15800
C909        C  0.00171599  0.47773557  0.09584412    -0.13800
C910        C  0.04029297  0.47188475  0.09735705    -0.29000
H911        H  0.96429216  0.44594541  0.09369473     0.15200
H912        H  0.07766405  0.50355201  0.09974540     0.15800
C913        C  0.92649013  0.70811225  0.23554411    -0.13800
C914        C  0.91517700  0.73079823  0.24926371    -0.29000
H915        H  0.90183859  0.69004277  0.22298276     0.15200
H916        H  0.93980895  0.74904005  0.26181063     0.15800
C917        C  0.00727108  0.59880908  0.29737097    -0.13800
C918        C  0.95977897  0.56991525  0.30376709    -0.29000
H919        H  0.03776685  0.60823498  0.30745324     0.15200
H920        H  0.92923129  0.55875879  0.29347245     0.15800
C921        C  0.05335535  0.62978127  0.18429787    -0.13800
C922        C  0.07322823  0.66060317  0.16865251    -0.29000
H923        H  0.02953022  0.59038740  0.18191524     0.15200
H924        H  0.09751241  0.69992214  0.17111601     0.15800
C925        C  0.34517168  0.11486000  0.23149233    -0.13800
C926        C  0.30271075  0.11357855  0.23415627    -0.29000
H927        H  0.38002291  0.14985864  0.22932806     0.15200
H928        H  0.26782457  0.07881779  0.23660695     0.15800
C929        C  0.44436485  0.04664058  0.29304843    -0.13800
C930        C  0.42265724  0.04529885  0.31041496    -0.29000
H931        H  0.48470544  0.06688875  0.29195361     0.15200
H932        H  0.38236550  0.02247359  0.31176643     0.15800
C933        C  0.23162436  0.83851272  0.24557568    -0.13800
C934        C  0.18567602  0.82961739  0.24856688    -0.29000
H935        H  0.23694373  0.80819193  0.24343264     0.15200
H936        H  0.18076458  0.86021805  0.25069174     0.15800
C937        C  0.46730376  0.22312947  0.11890010    -0.13800
C938        C  0.48282552  0.20729095  0.10388434    -0.29000
H939        H  0.45454473  0.20215519  0.13265836     0.15200
H940        H  0.49464767  0.22751802  0.08994226     0.15800
C941        C  0.58778472  0.01657157  0.09819359    -0.13800
C942        C  0.58739687  0.05798063  0.09944025    -0.29000
H943        H  0.55302095  0.98122182  0.09670605     0.15200
H944        H  0.62216889  0.09320158  0.10122266     0.15800
C945        C  0.41208810  0.99689447  0.17763616    -0.13800
C946        C  0.38400527  0.99167927  0.16167251    -0.29000
H947        H  0.45148327  0.01108435  0.17576105     0.15200
H948        H  0.34445248  0.97682040  0.16348956     0.15800
C949        C  0.80082048  0.75437972  0.05143165    -0.13800
C950        C  0.75577047  0.71783855  0.05792492    -0.29000
H951        H  0.83196253  0.77063504  0.06172578     0.15200
H952        H  0.72368573  0.70264413  0.04816368     0.15800
C953        C  0.36440127  0.00477464  0.04936861    -0.13800
C954        C  0.33310997  0.01832625  0.04317174    -0.29000
H955        H  0.37280864  0.98318311  0.03973539     0.15200
H956        H  0.32332571  0.03826409  0.05318567     0.15800
C957        C  0.75723105  0.96820766  0.05309526    -0.13800
C958        C  0.80324127  0.99169353  0.04506769    -0.29000
H959        H  0.72531274  0.94262917  0.04414096     0.15200
H960        H  0.83542551  0.01583996  0.05420636     0.15800
C961        C  0.86631611  0.92799416  0.99886999    -0.13800
C962        C  0.85903705  0.89788915  0.01415849    -0.29000
H963        H  0.87226869  0.91806487  0.98417718     0.15200
H964        H  0.85255119  0.90642473  0.02900967     0.15800
C965        C  0.30894465  0.24290083  0.05116101    -0.13800
C966        C  0.33691888  0.28973596  0.05759768    -0.29000
H967        H  0.29974578  0.21284067  0.06128144     0.15200
H968        H  0.34388907  0.31971391  0.04784246     0.15800
C969        C  0.27043340  0.10919351  0.01451817    -0.13800
C970        C  0.27025905  0.08276115  0.99906611    -0.29000
H971        H  0.26679835  0.09591681  0.02964521     0.15200
H972        H  0.27220699  0.09677807  0.98415227     0.15800
C973        C  0.07652780  0.29050373  0.05185733    -0.13800
C974        C  0.06089186  0.24356717  0.04754390    -0.29000
H975        H  0.09795738  0.31963371  0.04114981     0.15200
H976        H  0.04054898  0.21494300  0.05860614     0.15800
C977        C  0.14546086  0.17975294  0.01938964    -0.13800
C978        C  0.16924204  0.16851367  0.00605508    -0.29000
H979        H  0.16067315  0.19193498  0.03419163     0.15200
H980        H  0.15305940  0.15749729  0.99129289     0.15800
C981        C  0.92766435  0.09732497  0.00231752    -0.13800
C982        C  0.96962389  0.10563273  0.01104719    -0.29000
H983        H  0.92916997  0.12706712  0.99401265     0.15200
H984        H  0.96919116  0.07769596  0.02024044     0.15800
C985        C  0.03660665  0.73190937  0.05099487    -0.13800
C986        C  0.06498471  0.71461367  0.05684435    -0.29000
H987        H  0.00510584  0.72400685  0.06024631     0.15200
H988        H  0.09623088  0.72109725  0.04778595     0.15800
C989        C  0.14081822  0.88057912  0.00597085    -0.13800
C990        C  0.17741034  0.91356920  0.01802552    -0.29000
H991        H  0.14521120  0.88636316  0.99000147     0.15200
H992        H  0.17239733  0.91120331  0.03402712     0.15800
C993        C  0.96489529  0.80017336  0.00456838    -0.13800
C994        C  0.93495531  0.80456053  0.01738300    -0.29000
H995        H  0.95891773  0.79976687  0.98866952     0.15200
H996        H  0.94385485  0.80939029  0.03311893     0.15800
C997        C  0.78306396  0.71276995  0.96310021    -0.13800
C998        C  0.77499662  0.73856832  0.97673013    -0.29000
H999        H  0.81456603  0.70863573  0.96427052     0.15200
H1000       H  0.74192631  0.74029731  0.97520980     0.15800
C1001       C  0.66165609  0.63742254  0.71873271    -0.13800
C1002       C  0.63524475  0.65684258  0.71264225    -0.29000
H1003       H  0.66473402  0.61200031  0.70923087     0.15200
H1004       H  0.63058925  0.68037874  0.72272224     0.15800
C1005       C  0.70357906  0.63345302  0.83296376    -0.13800
C1006       C  0.73622795  0.64860864  0.84816858    -0.29000
H1007       H  0.66406881  0.61612298  0.83602142     0.15200
H1008       H  0.77572948  0.66585130  0.84511580     0.15800
C1009       C  0.33338168  0.25541612  0.95826071    -0.13800
C1010       C  0.33945787  0.27054981  0.97727116    -0.29000
H1011       H  0.30802275  0.21674276  0.95483209     0.15200
H1012       H  0.36592465  0.30904537  0.98065435     0.15800
C1013       C  0.54051439  0.48547980  0.91640623    -0.13800
C1014       C  0.54914400  0.53110060  0.91732409    -0.29000
H1015       H  0.57151595  0.48023565  0.91580318     0.15200
H1016       H  0.51795465  0.53609786  0.91783223     0.15800
C1017       C  0.42306008  0.39334480  0.71793947    -0.13800
C1018       C  0.40504636  0.42107946  0.71232805    -0.29000
H1019       H  0.44442649  0.38588956  0.70763988     0.15200
H1020       H  0.38442029  0.42861283  0.72303930     0.15800
C1021       C  0.40626598  0.34901850  0.83108553    -0.13800
C1022       C  0.39445128  0.31740071  0.84633548    -0.29000
H1023       H  0.42198560  0.38779777  0.83401284     0.15200
H1024       H  0.38007199  0.27887213  0.84339468     0.15800
C1025       C  0.35770411  0.00616117  0.95915952    -0.13800
C1026       C  0.31906565  0.97195745  0.97011507    -0.29000
H1027       H  0.37727549  0.04467469  0.96334066     0.15200
H1028       H  0.29846630  0.93405022  0.96501498     0.15800
C1029       C  0.41480770  0.96467718  0.71850209    -0.13800
C1030       C  0.40446827  0.91893038  0.71477349    -0.29000
H1031       H  0.43593181  0.99409157  0.70786058     0.15200
H1032       H  0.38513671  0.89033126  0.72592280     0.15800
C1033       C  0.37980226  0.17382738  0.76386044    -0.13800
C1034       C  0.34199406  0.12920496  0.75829724    -0.29000
H1035       H  0.41498042  0.17885798  0.76851583     0.15200
H1036       H  0.30672531  0.12427743  0.75386339     0.15800
C1037       C  0.39581431  0.99702555  0.82703859    -0.13800
C1038       C  0.38383659  0.01371620  0.84302703    -0.29000
H1039       H  0.41399623  0.97679248  0.82908957     0.15200
H1040       H  0.36595135  0.03426671  0.84109973     0.15800
C1041       C  0.23778434  0.78242405  0.90946199    -0.13800
C1042       C  0.24808831  0.82228774  0.89891565    -0.29000
H1043       H  0.26704186  0.78204013  0.91764799     0.15200
H1044       H  0.21837833  0.82270161  0.89110819     0.15800
C1045       C  0.04951976  0.73922405  0.97519919    -0.13800
C1046       C  0.03803328  0.69347623  0.97083534    -0.29000
H1047       H  0.06383502  0.76680118  0.96349017     0.15200
H1048       H  0.02253056  0.66505374  0.98218062     0.15800
C1049       C  0.16938954  0.84019554  0.78116650    -0.13800
C1050       C  0.19181062  0.86709017  0.76481661    -0.29000
H1051       H  0.18668224  0.85348473  0.79562631     0.15200
H1052       H  0.17516303  0.85351884  0.75028193     0.15800
C1053       C  0.09838333  0.64071712  0.72672740    -0.13800
C1054       C  0.14562615  0.66680644  0.71981546    -0.29000
H1055       H  0.06909878  0.61222720  0.71753884     0.15200
H1056       H  0.17539863  0.69370297  0.72930788     0.15800
C1057       C  0.04803556  0.63817519  0.83907865    -0.13800
C1058       C  0.02884935  0.64942722  0.85452715    -0.29000
H1059       H  0.07140934  0.62362780  0.84190839     0.15200
H1060       H  0.00505921  0.66354982  0.85181217     0.15800
C1061       C  0.90302646  0.66484206  0.76633881    -0.13800
C1062       C  0.89713843  0.70309613  0.76512709    -0.29000
H1063       H  0.87062284  0.62752531  0.76691865     0.15200
H1064       H  0.92968364  0.74035855  0.76479925     0.15800
C1065       C  0.25947670  0.36664553  0.90316434    -0.13800
C1066       C  0.25361928  0.39975530  0.91265845    -0.29000
H1067       H  0.22876255  0.33729493  0.89474784     0.15200
H1068       H  0.28380295  0.42864980  0.92142151     0.15800
C1069       C  0.05763738  0.27639418  0.96647176    -0.13800
C1070       C  0.08811042  0.26233062  0.97325324    -0.29000
H1071       H  0.02192933  0.26295326  0.97360664     0.15200
H1072       H  0.12295189  0.27489281  0.96550549     0.15800
C1073       C  0.11014439  0.51373232  0.92512045    -0.13800
C1074       C  0.06998006  0.51700908  0.92321407    -0.29000
H1075       H  0.14693648  0.54707351  0.92614241     0.15200
H1076       H  0.03316429  0.48386777  0.92183223     0.15800
C1077       C  0.19571423  0.28420251  0.78269468    -0.13800
C1078       C  0.21146976  0.26825491  0.76773575    -0.29000
H1079       H  0.21761413  0.29778119  0.79622553     0.15200
H1080       H  0.19040731  0.25537051  0.75399655     0.15800
C1081       C  0.10493977  0.39943182  0.72600381    -0.13800
C1082       C  0.15123743  0.43051377  0.71891814    -0.29000
H1083       H  0.07292250  0.38893254  0.71666251     0.15200
H1084       H  0.18306051  0.44219543  0.72856704     0.15800
C1085       C  0.07453517  0.36049830  0.83941101    -0.13800
C1086       C  0.05671349  0.32949107  0.85508084    -0.29000
H1087       H  0.09627772  0.39998018  0.84184935     0.15200
H1088       H  0.03457043  0.29003158  0.85260578     0.15800
C1089       C  0.66159076  0.80380432  0.90075615    -0.13800
C1090       C  0.70104672  0.80026947  0.89718073    -0.29000
H1091       H  0.62623628  0.77157704  0.90522694     0.15200
H1092       H  0.73665140  0.83261316  0.89301868     0.15800
C1093       C  0.53192536  0.97759411  0.90914838    -0.13800
C1094       C  0.53570727  0.93812805  0.90861649    -0.29000
H1095       H  0.56514413  0.01433820  0.90991281     0.15200
H1096       H  0.50226492  0.90150471  0.90785742     0.15800
C1097       C  0.77391398  0.99442015  0.95285425    -0.13800
C1098       C  0.75994358  0.98508274  0.97204454    -0.29000
H1099       H  0.81277620  0.00980500  0.94904782     0.15200
H1100       H  0.72139739  0.97038106  0.97615827     0.15800
C1101       C  0.79762632  0.86970931  0.76751116    -0.13800
C1102       C  0.77634238  0.83371785  0.78115806    -0.29000
H1103       H  0.81524062  0.86572429  0.75444752     0.15200
H1104       H  0.75791516  0.83751062  0.79398824     0.15800
C1105       C  0.68854444  0.96076930  0.71536388    -0.13800
C1106       C  0.66026774  0.91465229  0.70819331    -0.29000
H1107       H  0.69570932  0.99198878  0.70640244     0.15200
H1108       H  0.65148923  0.88351593  0.71759381     0.15800
C1109       C  0.92177611  0.12947453  0.76803920    -0.13800
C1110       C  0.92777609  0.17379140  0.77023474    -0.29000
H1111       H  0.95419029  0.12641118  0.76779408     0.15200
H1112       H  0.89534973  0.17676970  0.77099132     0.15800
C1113       C  0.70352991  0.97978672  0.82604564    -0.13800
C1114       C  0.72863149  0.00352115  0.84255957    -0.29000
H1115       H  0.66450229  0.95047641  0.82706408     0.15200
H1116       H  0.76710573  0.03408734  0.84149266     0.15800
loop_ 
_geom_bond_atom_site_label_1 
_geom_bond_atom_site_label_2 
_geom_bond_distance 
_geom_bond_site_symmetry_2 
_ccdc_geom_bond_type 
O1            C4   1.264       .  A
O1           Cd6   2.466       .  S
C2           O11   1.268       .  A
C2            O7   1.264       .  A
C2         C1109   1.477       .  S
O3            C9   1.262       .  A
O3           Cd6   2.460       .  S
C4           O12   1.266       .  A
C4         C1101   1.472       .  S
C5           O10   1.263       .  A
C5            O8   1.263   1_565  A
C5         C1113   1.475       .  S
Cd6          O13   2.488   1_565  S
Cd6          O12   2.446       .  S
Cd6          O11   2.487   1_565  S
Cd6           O7   2.460   1_565  S
Cd6          O10   2.482       .  S
Cd6           O8   2.477   1_565  S
C9           O13   1.266   1_565  A
C9         C1105   1.475       .  S
O14          C17   1.262       .  A
O14         Cd19   2.450       .  S
C15          O24   1.266   1_565  A
C15          O20   1.264       .  A
C15        C1114   1.476   1_565  S
O16          C22   1.262       .  A
O16         Cd19   2.451       .  S
C17          O25   1.265       .  A
C17        C1097   1.473       .  S
C18          O23   1.262       .  A
C18          O21   1.269       .  A
C18        C1094   1.468       .  S
Cd19         O26   2.443       .  S
Cd19         O25   2.500       .  S
Cd19         O24   2.486   1_565  S
Cd19         O20   2.462       .  S
Cd19         O23   2.423       .  S
Cd19         O21   2.478       .  S
C22          O26   1.263       .  A
C22        C1089   1.465       .  S
O27          C30   1.267   1_455  A
O27         Cd32   2.476       .  S
C28          O37   1.262       .  A
C28          O33   1.266       .  A
C28        C1077   1.472       .  S
O29          C35   1.262       .  A
O29         Cd32   2.477       .  S
C30          O38   1.265       .  A
C30        C1110   1.477       .  S
C31          O36   1.267       .  A
C31          O34   1.264       .  A
C31        C1085   1.481       .  S
Cd32         O39   2.511       .  S
Cd32         O38   2.467   1_455  S
Cd32         O37   2.443       .  S
Cd32         O33   2.502       .  S
Cd32         O36   2.500       .  S
Cd32         O34   2.469       .  S
C35          O39   1.265       .  A
C35        C1081   1.480       .  S
O40          C43   1.266       .  A
O40         Cd45   2.493       .  S
C41          O50   1.259       .  A
C41          O46   1.268       .  A
C41        C1069   1.479       .  S
O42          C48   1.266       .  A
O42         Cd45   2.463       .  S
C43          O51   1.263       .  A
C43        C1086   1.480       .  S
C44          O49   1.262       .  A
C44          O47   1.267       .  A
C44        C1073   1.474       .  S
Cd45         O52   2.428       .  S
Cd45         O51   2.476       .  S
Cd45         O50   2.438       .  S
Cd45         O46   2.532       .  S
Cd45         O49   2.444       .  S
Cd45         O47   2.496       .  S
C48          O52   1.267       .  A
C48        C1066   1.470       .  S
O53          C56   1.266       .  A
O53         Cd58   2.464   1_655  S
C54          O63   1.263       .  A
C54          O59   1.267       .  A
C54        C1049   1.472       .  S
O55          C61   1.267       .  A
O55         Cd58   2.494       .  S
C56          O64   1.265       .  A
C56        C1061   1.477       .  S
C57          O62   1.266       .  A
C57          O60   1.263       .  A
C57        C1053   1.481       .  S
Cd58         O65   2.482       .  S
Cd58         O64   2.479   1_455  S
Cd58         O63   2.451       .  S
Cd58         O59   2.476       .  S
Cd58         O62   2.493       .  S
Cd58         O60   2.494       .  S
C61          O65   1.263       .  A
C61        C1057   1.481       .  S
O66          C69   1.268       .  A
O66         Cd71   2.452       .  S
C67          O76   1.264       .  A
C67          O72   1.265       .  A
C67        C1041   1.475       .  S
O68          C74   1.268       .  A
O68         Cd71   2.516       .  S
C69          O77   1.267       .  A
C69        C1074   1.477       .  S
C70          O75   1.262       .  A
C70          O73   1.264       .  A
C70        C1046   1.483       .  S
Cd71         O78   2.459       .  S
Cd71         O77   2.466       .  S
Cd71         O76   2.444       .  S
Cd71         O72   2.488       .  S
Cd71         O75   2.494       .  S
Cd71         O73   2.508       .  S
C74          O78   1.262       .  A
C74        C1058   1.483       .  S
O79          C82   1.264       .  A
O79         Cd84   2.456   1_545  S
C80          O89   1.265       .  A
C80          O85   1.264       .  A
C80        C1050   1.475       .  S
O81          C87   1.266   1_545  A
O81         Cd84   2.492   1_545  S
C82          O90   1.267       .  A
C82        C1034   1.474       .  S
C83          O88   1.265   1_545  A
C83          O86   1.264       .  A
C83        C1037   1.477   1_545  S
Cd84         O91   2.480       .  S
Cd84         O90   2.483   1_565  S
Cd84         O89   2.462       .  S
Cd84         O85   2.477       .  S
Cd84         O88   2.474       .  S
Cd84         O86   2.489   1_565  S
C87          O91   1.263       .  A
C87        C1029   1.480       .  S
O92          C95   1.267       .  A
O92         Cd97   2.440       .  S
C93         O102   1.264       .  A
C93          O98   1.268       .  A
C93        C1042   1.470       .  S
O94         C100   1.267   1_545  A
O94         Cd97   2.498   1_545  S
C95         O103   1.264   1_565  A
C95        C1093   1.471       .  S
C96         O101   1.268   1_565  A
C96          O99   1.265       .  A
C96        C1038   1.480   1_565  S
Cd97        O104   2.435       .  S
Cd97        O103   2.464   1_565  S
Cd97        O102   2.432       .  S
Cd97         O98   2.477       .  S
Cd97        O101   2.495   1_565  S
Cd97         O99   2.452       .  S
C100        O104   1.262       .  A
C100       C1025   1.475   1_565  S
O105        C108   1.264       .  A
O105       Cd110   2.476       .  S
C106        O115   1.264       .  A
C106        O111   1.268       .  A
C106       C1021   1.478       .  S
O107        C113   1.265       .  A
O107       Cd110   2.501       .  S
C108        O116   1.263       .  A
C108       C1017   1.478       .  S
C109        O114   1.268       .  A
C109        O112   1.265       .  A
C109       C1033   1.476       .  S
Cd110       O117   2.439       .  S
Cd110       O116   2.486       .  S
Cd110       O115   2.457       .  S
Cd110       O111   2.491       .  S
Cd110       O114   2.460       .  S
Cd110       O112   2.464       .  S
C113        O117   1.263       .  A
C113       C1078   1.478       .  S
O118        C121   1.266       .  A
O118       Cd123   2.478       .  S
C119        O128   1.267       .  A
C119        O124   1.266       .  A
C119       C1013   1.478       .  S
O120        C126   1.265       .  A
O120       Cd123   2.493       .  S
C121        O129   1.261       .  A
C121       C1065   1.466       .  S
C122        O127   1.268       .  A
C122        O125   1.265       .  A
C122       C1022   1.478       .  S
Cd123       O130   2.476       .  S
Cd123       O129   2.431       .  S
Cd123       O128   2.483       .  S
Cd123       O124   2.457       .  S
Cd123       O127   2.485       .  S
Cd123       O125   2.462       .  S
C126        O130   1.264       .  A
C126       C1009   1.479       .  S
O131        C134   1.267       .  A
O131       Cd136   2.504       .  S
C132        O141   1.262       .  A
C132        O137   1.266       .  A
C132       C1001   1.487       .  S
O133        C139   1.267       .  A
O133       Cd136   2.473       .  S
C134        O142   1.262       .  A
C134       C1005   1.481       .  S
C135        O140   1.264       .  A
C135        O138   1.268       .  A
C135       C1062   1.475       .  S
Cd136       O143   2.440       .  S
Cd136       O142   2.468       .  S
Cd136       O141   2.486       .  S
Cd136       O137   2.521       .  S
Cd136       O140   2.454       .  S
Cd136       O138   2.483       .  S
C139        O143   1.263       .  A
C139       C1102   1.469       .  S
O144        C147   1.265       .  A
O144       Cd149   2.438       .  S
C145        O154   1.269       .  A
C145        O150   1.264       .  A
C145       C1014   1.475       .  S
O146        C152   1.268       .  A
O146       Cd149   2.500       .  S
C147        O155   1.263       .  A
C147       C1090   1.467       .  S
C148        O153   1.269       .  A
C148        O151   1.262       .  A
C148        C997   1.484       .  S
Cd149       O156   2.466       .  S
Cd149       O155   2.462       .  S
Cd149       O154   2.484       .  S
Cd149       O150   2.443       .  S
Cd149       O153   2.518       .  S
Cd149       O151   2.457       .  S
C152        O156   1.263       .  A
C152       C1006   1.481       .  S
C157        C158   1.533       .  S
C157        C163   1.537       .  S
C157        C161   1.542       .  S
C157        C985   1.515       .  S
C158        H165   1.086   1_455  S
C158        C159   1.363       .  D
C159        C160   1.537   1_554  S
C159        C993   1.483   1_455  S
C160        C164   1.543   1_556  S
C160        C162   1.539       .  S
C160        H166   1.111       .  S
C161        H167   1.085       .  S
C161        C162   1.372   1_554  D
C162       C1045   1.494       .  S
C163        H168   1.085       .  S
C163        C164   1.371       .  D
C164        C989   1.484       .  S
C169        C170   1.526       .  S
C169        C175   1.528       .  S
C169        C173   1.528   1_556  S
C169       C1070   1.513       .  S
C170        H177   1.085       .  S
C170        C171   1.372   1_556  D
C171        C172   1.548       .  S
C171        C982   1.493   1_455  S
C172        C176   1.544       .  S
C172        C174   1.543       .  S
C172        H178   1.111       .  S
C173        H179   1.084       .  S
C173        C174   1.370       .  D
C174        C974   1.485       .  S
C175        H180   1.087       .  S
C175        C176   1.368   1_556  D
C176        C977   1.489       .  S
C181        C182   1.525       .  S
C181        C187   1.532       .  S
C181        C185   1.532   1_556  S
C181       C1010   1.516       .  S
C182        H189   1.087       .  S
C182        C183   1.363   1_556  D
C183        C184   1.546       .  S
C183        C978   1.478       .  S
C184        C188   1.544       .  S
C184        C186   1.548       .  S
C184        H190   1.111       .  S
C185        H191   1.085       .  S
C185        C186   1.370       .  D
C186        C965   1.490       .  S
C187        H192   1.086       .  S
C187        C188   1.373   1_556  D
C188        C969   1.491       .  S
C193        C194   1.527       .  S
C193        C199   1.528   1_565  S
C193        C197   1.532   1_556  S
C193       C1098   1.516       .  S
C194        H201   1.087       .  S
C194        C195   1.362       .  D
C195        C196   1.546   1_566  S
C195        C961   1.478       .  S
C196        C200   1.550       .  S
C196        C198   1.548   1_545  S
C196        H202   1.110       .  S
C197        H203   1.085       .  S
C197        C198   1.373       .  D
C198        C958   1.489       .  S
C199        H204   1.087       .  S
C199        C200   1.366   1_556  D
C200        C981   1.484       .  S
C205        C206   1.526   1_565  S
C205        C211   1.528       .  S
C205        C209   1.533   1_556  S
C205       C1026   1.512       .  S
C206        H213   1.087       .  S
C206        C207   1.362   1_556  D
C207        C208   1.550       .  S
C207        C970   1.482   1_554  S
C208        C212   1.548   1_545  S
C208        C210   1.545       .  S
C208        H214   1.110       .  S
C209        H215   1.085       .  S
C209        C210   1.373   1_565  D
C210        C954   1.490       .  S
C211        H216   1.086       .  S
C211        C212   1.366   1_556  D
C212        C990   1.488       .  S
C217        C218   1.540       .  S
C217        C223   1.531       .  S
C217        C221   1.540   1_556  S
C217        C998   1.524       .  S
C218        H225   1.082       .  S
C218        C219   1.369   1_556  D
C219        C220   1.541       .  S
C219        C994   1.482       .  S
C220        C224   1.541       .  S
C220        C222   1.541       .  S
C220        H226   1.111       .  S
C221        H227   1.085       .  S
C221        C222   1.371       .  D
C222        C949   1.495       .  S
C223        H228   1.087       .  S
C223        C224   1.369   1_556  D
C224        C962   1.491       .  S
O229        C232   1.266       .  A
O229       Cd234   2.505       .  S
C230        O239   1.265       .  A
C230        O235   1.265       .  A
C230        C953   1.478       .  S
O231        C237   1.263       .  A
O231       Cd234   2.467       .  S
C232        O240   1.262       .  A
C232        C946   1.479   1_545  S
C233        O238   1.264       .  A
C233        O236   1.267       .  A
C233        C942   1.473       .  S
Cd234       O241   2.454       .  S
Cd234       O240   2.469       .  S
Cd234       O239   2.489       .  S
Cd234       O235   2.471       .  S
Cd234       O238   2.450       .  S
Cd234       O236   2.469       .  S
C237        O241   1.265       .  A
C237        C938   1.473       .  S
O242        C245   1.266       .  A
O242       Cd247   2.444       .  S
C243        O252   1.262       .  A
C243        O248   1.267       .  A
C243        C925   1.465       .  S
O244        C250   1.268       .  A
O244       Cd247   2.504   1_545  S
C245        O253   1.268       .  A
C245        C933   1.479       .  S
C246        O251   1.269       .  A
C246        O249   1.264       .  A
C246        C945   1.479       .  S
Cd247       O254   2.470   1_565  S
Cd247       O253   2.490       .  S
Cd247       O252   2.425   1_565  S
Cd247       O248   2.467   1_565  S
Cd247       O251   2.492       .  S
Cd247       O249   2.456       .  S
C250        O254   1.264       .  A
C250        C929   1.483       .  S
O255        C258   1.264       .  A
O255       Cd260   2.450       .  S
C256        O265   1.263       .  A
C256        O261   1.265       .  A
C256        C913   1.468       .  S
O257        C263   1.267       .  A
O257       Cd260   2.500       .  S
C258        O266   1.268       .  A
C258        C934   1.475       .  S
C259        O264   1.263   1_455  A
C259        O262   1.266       .  A
C259        C917   1.480       .  S
Cd260       O267   2.448       .  S
Cd260       O266   2.489       .  S
Cd260       O265   2.454   1_455  S
Cd260       O261   2.457   1_455  S
Cd260       O264   2.495   1_455  S
Cd260       O262   2.482       .  S
C263        O267   1.263       .  A
C263        C921   1.477       .  S
O268        C271   1.266       .  A
O268       Cd273   2.537       .  S
C269        O278   1.266       .  A
C269        O274   1.263       .  A
C269        C922   1.476       .  S
O270        C276   1.266       .  A
O270       Cd273   2.463   1_655  S
C271        O279   1.261       .  A
C271        C986   1.484       .  S
C272        O277   1.263   1_455  A
C272        O275   1.267       .  A
C272        C909   1.470       .  S
Cd273       O280   2.437   1_455  S
Cd273       O279   2.443       .  S
Cd273       O278   2.485       .  S
Cd273       O274   2.467       .  S
Cd273       O277   2.444   1_455  S
Cd273       O275   2.462       .  S
C276        O280   1.266       .  A
C276        C906   1.471       .  S
O281        C284   1.267       .  A
O281       Cd286   2.474       .  S
C282        O291   1.266   1_545  A
C282        O287   1.267       .  A
C282        C941   1.474       .  S
O283        C289   1.263   1_545  A
O283       Cd286   2.493       .  S
C284        O292   1.264       .  A
C284        C897   1.468       .  S
C285        O290   1.267       .  A
C285        O288   1.262   1_565  A
C285        C901   1.477       .  S
Cd286       O293   2.480   1_545  S
Cd286       O292   2.431       .  S
Cd286       O291   2.466   1_545  S
Cd286       O287   2.456       .  S
Cd286       O290   2.507   1_545  S
Cd286       O288   2.442       .  S
C289        O293   1.264       .  A
C289        C957   1.477       .  S
O294        C297   1.267       .  A
O294       Cd299   2.453       .  S
C295        O304   1.264       .  A
C295        O300   1.264       .  A
C295        C885   1.471       .  S
O296        C302   1.267       .  A
O296       Cd299   2.483       .  S
C297        O305   1.266       .  A
C297        C893   1.473       .  S
C298        O303   1.263       .  A
C298        O301   1.264   1_545  A
C298        C889   1.479       .  S
Cd299       O306   2.458       .  S
Cd299       O305   2.461       .  S
Cd299       O304   2.439   1_565  S
Cd299       O300   2.476   1_565  S
Cd299       O303   2.499   1_565  S
Cd299       O301   2.480       .  S
C302        O306   1.263       .  A
C302        C902   1.475       .  S
O307        C310   1.268   1_655  A
O307       Cd312   2.447   1_655  S
C308        O317   1.263       .  A
C308        O313   1.266       .  A
C308        C898   1.473       .  S
O309        C315   1.263       .  A
O309       Cd312   2.470       .  S
C310        O318   1.266       .  A
C310        C910   1.471       .  S
C311        O316   1.267       .  A
C311        O314   1.263       .  A
C311        C881   1.472       .  S
Cd312       O319   2.462       .  S
Cd312       O318   2.449       .  S
Cd312       O317   2.427   1_455  S
Cd312       O313   2.489   1_455  S
Cd312       O316   2.479       .  S
Cd312       O314   2.433       .  S
C315        O319   1.263       .  A
C315        C973   1.470       .  S
O320        C323   1.267       .  A
O320       Cd325   2.447       .  S
C321        O330   1.263       .  A
C321        O326   1.268       .  A
C321        C886   1.467       .  S
O322        C328   1.263       .  A
O322       Cd325   2.472       .  S
C323        O331   1.265       .  A
C323        C877   1.473       .  S
C324        O329   1.267       .  A
C324        O327   1.263       .  A
C324        C882   1.472       .  S
Cd325       O332   2.483   1_455  S
Cd325       O331   2.461       .  S
Cd325       O330   2.431   1_455  S
Cd325       O326   2.470   1_455  S
Cd325       O329   2.479       .  S
Cd325       O327   2.444       .  S
C328        O332   1.263   1_455  A
C328        C873   1.475       .  S
O333        C336   1.268       .  A
O333       Cd338   2.483       .  S
C334        O343   1.265       .  A
C334        O339   1.268       .  A
C334        C866   1.474       .  S
O335        C341   1.264       .  A
O335       Cd338   2.496       .  S
C336        O344   1.262       .  A
C336        C937   1.470       .  S
C337        O342   1.268       .  A
C337        O340   1.260       .  A
C337        C870   1.475       .  S
Cd338       O345   2.495       .  S
Cd338       O344   2.437       .  S
Cd338       O343   2.451       .  S
Cd338       O339   2.473       .  S
Cd338       O342   2.493       .  S
Cd338       O340   2.449       .  S
C341        O345   1.262       .  A
C341        C966   1.479       .  S
O346        C349   1.270       .  A
O346       Cd351   2.545       .  S
C347        O356   1.262       .  A
C347        O352   1.272       .  A
C347        C869   1.475       .  S
O348        C354   1.266       .  A
O348       Cd351   2.470       .  S
C349        O357   1.263       .  A
C349        C861   1.480       .  S
C350        O355   1.265       .  A
C350        O353   1.269       .  A
C350        C878   1.471       .  S
Cd351       O358   2.425       .  S
Cd351       O357   2.428       .  S
Cd351       O356   2.435       .  S
Cd351       O352   2.496       .  S
Cd351       O355   2.435       .  S
Cd351       O353   2.470       .  S
C354        O358   1.265       .  A
C354        C926   1.470       .  S
O359        C362   1.268       .  A
O359       Cd364   2.498       .  S
C360        O369   1.265       .  A
C360        O365   1.262       .  A
C360        C853   1.479       .  S
O361        C367   1.265       .  A
O361       Cd364   2.468       .  S
C362        O370   1.263       .  A
C362        C857   1.480       .  S
C363        O368   1.266       .  A
C363        O366   1.266       .  A
C363        C894   1.473       .  S
Cd364       O371   2.435       .  S
Cd364       O370   2.468       .  S
Cd364       O369   2.490       .  S
Cd364       O365   2.486       .  S
Cd364       O368   2.463       .  S
Cd364       O366   2.456       .  S
C367        O371   1.265       .  A
C367        C914   1.470       .  S
O372        C375   1.265       .  A
O372       Cd377   2.452       .  S
C373        O382   1.264       .  A
C373        O378   1.265       .  A
C373        C905   1.470       .  S
O374        C380   1.264       .  A
O374       Cd377   2.510       .  S
C375        O383   1.269       .  A
C375        C865   1.475       .  S
C376        O381   1.266       .  A
C376        O379   1.261       .  A
C376        C858   1.481       .  S
Cd377       O384   2.507       .  S
Cd377       O383   2.466       .  S
Cd377       O382   2.453       .  S
Cd377       O378   2.466       .  S
Cd377       O381   2.513       .  S
Cd377       O379   2.473       .  S
C380        O384   1.264       .  A
C380        C950   1.486       .  S
C385        C386   1.530       .  S
C385        C391   1.533       .  S
C385        C389   1.536       .  S
C385        C842   1.512       .  S
C386        H393   1.085       .  S
C386        C387   1.371       .  D
C387        C388   1.556       .  S
C387        C849   1.494       .  S
C388        C392   1.539       .  S
C388        C390   1.545       .  S
C388        H394   1.110       .  S
C389        H395   1.086       .  S
C389        C390   1.365       .  D
C390        C930   1.486       .  S
C391        H396   1.087       .  S
C391        C392   1.367       .  D
C392        C845   1.489       .  S
C397        C398   1.528       .  S
C397        C403   1.526       .  S
C397        C401   1.536       .  S
C397        C829   1.519       .  S
C398        H405   1.085       .  S
C398        C399   1.371       .  D
C399        C400   1.545       .  S
C399        C834   1.490       .  S
C400        C404   1.547       .  S
C400        C402   1.546       .  S
C400        H406   1.111       .  S
C401        H407   1.085       .  S
C401        C402   1.375       .  D
C402       C1082   1.493       .  S
C403        H408   1.087       .  S
C403        C404   1.363       .  D
C404        C838   1.482       .  S
C409        C410   1.524       .  S
C409        C415   1.536       .  S
C409        C413   1.532       .  S
C409        C817   1.515       .  S
C410        H417   1.087       .  S
C410        C411   1.364       .  D
C411        C412   1.553       .  S
C411        C822   1.489       .  S
C412        C416   1.551       .  S
C412        C414   1.546       .  S
C412        H418   1.110       .  S
C413        H419   1.086       .  S
C413        C414   1.370       .  D
C414        C854   1.489       .  S
C415        H420   1.086       .  S
C415        C416   1.371       .  D
C416        C826   1.497       .  S
C421        C422   1.535       .  S
C421        C427   1.543       .  S
C421        C425   1.535       .  S
C421        C862   1.525       .  S
C422        H429   1.085       .  S
C422        C423   1.368       .  D
C423        C424   1.548       .  S
C423        C850   1.494       .  S
C424        C428   1.549       .  S
C424        C426   1.542       .  S
C424        H430   1.111       .  S
C425        H431   1.087       .  S
C425        C426   1.360       .  D
C426        C813   1.483       .  S
C427        H432   1.085       .  S
C427        C428   1.376       .  D
C428        C825   1.495       .  S
C433        C434   1.526       .  S
C433        C439   1.528       .  S
C433        C437   1.530       .  S
C433        C806   1.516       .  S
C434        H441   1.087       .  S
C434        C435   1.363       .  D
C435        C436   1.553       .  S
C435        C810   1.487       .  S
C436        C440   1.554       .  S
C436        C438   1.550       .  S
C436        H442   1.111       .  S
C437        H443   1.085   1_655  S
C437        C438   1.371       .  D
C438        C918   1.492       .  S
C439        H444   1.085       .  S
C439        C440   1.373       .  D
C440        C821   1.500       .  S
C445        C446   1.537       .  S
C445        C451   1.539       .  S
C445        C449   1.536       .  S
C445        C793   1.521       .  S
C446        H453   1.084       .  S
C446        C447   1.371       .  D
C447        C448   1.539       .  S
C447        C797   1.499       .  S
C448        C452   1.548       .  S
C448        C450   1.546       .  S
C448        H454   1.111       .  S
C449        H455   1.085       .  S
C449        C450   1.370       .  D
C450       C1002   1.494       .  S
C451        H456   1.078       .  S
C451        C452   1.367       .  D
C452        C802   1.488       .  S
C457        C458   1.529       .  S
C457        C463   1.534       .  S
C457        C461   1.528       .  S
C457        C785   1.518       .  S
C458        H465   1.087       .  S
C458        C459   1.364       .  D
C459        C460   1.545       .  S
C459        C789   1.482       .  S
C460        C464   1.553       .  S
C460        C462   1.548       .  S
C460        H466   1.109       .  S
C461        H467   1.085       .  S
C461        C462   1.371       .  D
C462       C1106   1.486       .  S
C463        H468   1.083       .  S
C463        C464   1.365       .  D
C464        C798   1.490       .  S
C469        C470   1.546       .  S
C469        C475   1.539       .  S
C469        C473   1.537       .  S
C469        C781   1.531       .  S
C470        H477   1.080       .  S
C470        C471   1.374       .  D
C471        C472   1.540       .  S
C471        C801   1.486       .  S
C472        C476   1.536       .  S
C472        C474   1.539       .  S
C472        H478   1.111       .  S
C473        H479   1.084       .  S
C473        C474   1.371       .  D
C474       C1018   1.489       .  S
C475        H480   1.081       .  S
C475        C476   1.358       .  D
C476        C833   1.477       .  S
C481        C482   1.530       .  S
C481        C487   1.524       .  S
C481        C485   1.531       .  S
C481        C773   1.515       .  S
C482        H489   1.087       .  S
C482        C483   1.369       .  D
C483        C484   1.548       .  S
C483        C837   1.491       .  S
C484        C488   1.555       .  S
C484        C486   1.552       .  S
C484        H490   1.110       .  S
C485        H491   1.086       .  S
C485        C486   1.372       .  D
C486       C1054   1.492       .  S
C487        H492   1.087       .  S
C487        C488   1.362       .  D
C488        C778   1.486       .  S
C493        C494   1.531       .  S
C493        C499   1.525       .  S
C493        C497   1.531       .  S
C493        C769   1.513       .  S
C494        H501   1.085       .  S
C494        C495   1.375       .  D
C495        C496   1.548       .  S
C495        C777   1.498       .  S
C496        C500   1.550       .  S
C496        C498   1.550       .  S
C496        H502   1.111       .  S
C497        H503   1.085       .  S
C497        C498   1.371       .  D
C498       C1030   1.492       .  S
C499        H504   1.087       .  S
C499        C500   1.364       .  D
C500        C790   1.493       .  S
C505        C506   1.524       .  S
C505        C511   1.526       .  S
C505        C509   1.527       .  S
C505        C762   1.510       .  S
C506        H513   1.087       .  S
C506        C507   1.361       .  D
C507        C508   1.548       .  S
C507        C846   1.478       .  S
C508        C512   1.549       .  S
C508        C510   1.556       .  S
C508        H514   1.111       .  S
C509        H515   1.085       .  S
C509        C510   1.372       .  D
C510        C890   1.493       .  S
C511        H516   1.086       .  S
C511        C512   1.372       .  D
C512        C765   1.497       .  S
C517        C518   1.532       .  S
C517        C523   1.529       .  S
C517        C521   1.534       .  S
C517        C757   1.527       .  S
C518        H525   1.082       .  S
C518        C519   1.363       .  D
C519        C520   1.547       .  S
C519        C766   1.482       .  S
C520        C524   1.552       .  S
C520        C522   1.543       .  S
C520        H526   1.111       .  S
C521        H527   1.085   1_655  S
C521        C522   1.372       .  D
C522        C874   1.486       .  S
C523        H528   1.087       .  S
C523        C524   1.372       .  D
C524        C809   1.497       .  S
O529        C532   1.268       .  A
O529       Cd534   2.453       .  S
C530        O539   1.266       .  A
C530        O535   1.266       .  A
C530        C750   1.474       .  S
O531        C537   1.269       .  A
O531       Cd534   2.491       .  S
C532        O540   1.263       .  A
C532        C745   1.463       .  S
C533        O538   1.271       .  A
C533        O536   1.264       .  A
C533        C753   1.480       .  S
Cd534       O541   2.470       .  S
Cd534       O540   2.422       .  S
Cd534       O539   2.476       .  S
Cd534       O535   2.443       .  S
Cd534       O538   2.497       .  S
Cd534       O536   2.453       .  S
C537        O541   1.262       .  A
C537        C782   1.480       .  S
O542        C545   1.263       .  A
O542       Cd547   2.421       .  S
C543        O552   1.263       .  A
C543        O548   1.264       .  A
C543        C737   1.467       .  S
O544        C550   1.269       .  A
O544       Cd547   2.508       .  S
C545        O553   1.270       .  A
C545        C741   1.472       .  S
C546        O551   1.268       .  A
C546        O549   1.263       .  A
C546        C814   1.484       .  S
Cd547       O554   2.451       .  S
Cd547       O553   2.497       .  S
Cd547       O552   2.456       .  S
Cd547       O548   2.452       .  S
Cd547       O551   2.524       .  S
Cd547       O549   2.445       .  S
C550        O554   1.262       .  A
C550        C754   1.479       .  S
O555        C558   1.269       .  A
O555       Cd560   2.510       .  S
C556        O565   1.264       .  A
C556        O561   1.268       .  A
C556        C733   1.478       .  S
O557        C563   1.269   1_655  A
O557       Cd560   2.455   1_655  S
C558        O566   1.262       .  A
C558        C774   1.478       .  S
C559        O564   1.266       .  A
C559        O562   1.268       .  A
C559        C729   1.469       .  S
Cd560       O567   2.420       .  S
Cd560       O566   2.434       .  S
Cd560       O565   2.455       .  S
Cd560       O561   2.493       .  S
Cd560       O564   2.448   1_455  S
Cd560       O562   2.443   1_455  S
C563        O567   1.263       .  A
C563        C725   1.465       .  S
O568        C571   1.263       .  A
O568       Cd573   2.415       .  S
C569        O578   1.261       .  A
C569        O574   1.263       .  A
C569        C717   1.468       .  S
O570        C576   1.267       .  A
O570       Cd573   2.478       .  S
C571        O579   1.268       .  A
C571        C721   1.464       .  S
C572        O577   1.263   1_455  A
C572        O575   1.264       .  A
C572        C805   1.477   1_455  S
Cd573       O580   2.463       .  S
Cd573       O579   2.470       .  S
Cd573       O578   2.453       .  S
Cd573       O574   2.483       .  S
Cd573       O577   2.479   1_455  S
Cd573       O575   2.484       .  S
C576        O580   1.265       .  A
C576        C734   1.477       .  S
O581        C584   1.266       .  A
O581       Cd586   2.466       .  S
C582        O591   1.266       .  A
C582        O587   1.264       .  A
C582        C722   1.471       .  S
O583        C589   1.267       .  A
O583       Cd586   2.493   1_545  S
C584        O592   1.266       .  A
C584        C710   1.470       .  S
C585        O590   1.266       .  A
C585        O588   1.260       .  A
C585        C841   1.478       .  S
Cd586       O593   2.452       .  S
Cd586       O592   2.424       .  S
Cd586       O591   2.489       .  S
Cd586       O587   2.404       .  S
Cd586       O590   2.515   1_565  S
Cd586       O588   2.433   1_565  S
C589        O593   1.263   1_545  A
C589        C713   1.478       .  S
O594        C597   1.265   1_565  A
O594       Cd599   2.483   1_565  S
C595        O604   1.260       .  A
C595        O600   1.266       .  A
C595        C770   1.480       .  S
O596        C602   1.266       .  A
O596       Cd599   2.470       .  S
C597        O605   1.263       .  A
C597        C714   1.476   1_545  S
C598        O603   1.264       .  A
C598        O601   1.267       .  A
C598        C749   1.472       .  S
Cd599       O606   2.439       .  S
Cd599       O605   2.475       .  S
Cd599       O604   2.434   1_545  S
Cd599       O600   2.527   1_545  S
Cd599       O603   2.447       .  S
Cd599       O601   2.472       .  S
C602        O606   1.266       .  A
C602        C705   1.472       .  S
O607        C610   1.263       .  A
O607       Cd612   2.396   1_655  S
C608        O617   1.264       .  A
C608        O613   1.262   1_455  A
C608        C726   1.468       .  S
O609        C615   1.265       .  A
O609       Cd612   2.482       .  S
C610        O618   1.269   1_655  A
C610        C697   1.476       .  S
C611        O616   1.267       .  A
C611        O614   1.263       .  A
C611        C701   1.479       .  S
Cd612       O619   2.488       .  S
Cd612       O618   2.505       .  S
Cd612       O617   2.439       .  S
Cd612       O613   2.462   1_455  S
Cd612       O616   2.502       .  S
Cd612       O614   2.459       .  S
C615        O619   1.265       .  A
C615        C830   1.480       .  S
O620        C623   1.269       .  A
O620       Cd625   2.478       .  S
C621        O630   1.262       .  A
C621        O626   1.267       .  A
C621        C758   1.479   1_455  S
O622        C628   1.266       .  A
O622       Cd625   2.486       .  S
C623        O631   1.266       .  A
C623        C702   1.478       .  S
C624        O629   1.266       .  A
C624        O627   1.264       .  A
C624        C742   1.477       .  S
Cd625       O632   2.420       .  S
Cd625       O631   2.462       .  S
Cd625       O630   2.470       .  S
Cd625       O626   2.492       .  S
Cd625       O629   2.454       .  S
Cd625       O627   2.486       .  S
C628        O632   1.264       .  A
C628        C718   1.473       .  S
O633        C636   1.265       .  A
O633       Cd638   2.435       .  S
C634        O643   1.267       .  A
C634        O639   1.266       .  A
C634        C738   1.468       .  S
O635        C641   1.270       .  A
O635       Cd638   2.534       .  S
C636        O644   1.267       .  A
C636        C693   1.475       .  S
C637        O642   1.269       .  A
C637        O640   1.261       .  A
C637        C689   1.480       .  S
Cd638       O645   2.421       .  S
Cd638       O644   2.484       .  S
Cd638       O643   2.432       .  S
Cd638       O639   2.453       .  S
Cd638       O642   2.513       .  S
Cd638       O640   2.453       .  S
C641        O645   1.259       .  A
C641        C818   1.480       .  S
O646        C649   1.266       .  A
O646       Cd651   2.438       .  S
C647        O656   1.266       .  A
C647        O652   1.266       .  A
C647        C746   1.467       .  S
O648        C654   1.262       .  A
O648       Cd651   2.485       .  S
C649        O657   1.266       .  A
C649        C730   1.469       .  S
C650        O655   1.271       .  A
C650        O653   1.260       .  A
C650        C690   1.480       .  S
Cd651       O658   2.511       .  S
Cd651       O657   2.451       .  S
Cd651       O656   2.416       .  S
Cd651       O652   2.456       .  S
Cd651       O655   2.518       .  S
Cd651       O653   2.448       .  S
C654        O658   1.265       .  A
C654        C794   1.484       .  S
O659        C662   1.268   1_545  A
O659       Cd664   2.483   1_545  S
C660        O669   1.265       .  A
C660        O665   1.268   1_565  A
C660        C685   1.474   1_565  S
O661        C667   1.265       .  A
O661       Cd664   2.472       .  S
C662        O670   1.261       .  A
C662        C761   1.470   1_565  S
C663        O668   1.265       .  A
C663        O666   1.268       .  A
C663        C694   1.470       .  S
Cd664       O671   2.445       .  S
Cd664       O670   2.434       .  S
Cd664       O669   2.424       .  S
Cd664       O665   2.485   1_565  S
Cd664       O668   2.433       .  S
Cd664       O666   2.469       .  S
C667        O671   1.262       .  A
C667        C709   1.467       .  S
O672        C675   1.263       .  A
O672       Cd677   2.422       .  S
C673        O682   1.263       .  A
C673        O678   1.267       .  A
C673        C706   1.470       .  S
O674        C680   1.265   1_565  A
O674       Cd677   2.466   1_565  S
C675        O683   1.267       .  A
C675        C698   1.468       .  S
C676        O681   1.267       .  A
C676        O679   1.264   1_565  A
C676        C786   1.474       .  S
Cd677       O684   2.466       .  S
Cd677       O683   2.487       .  S
Cd677       O682   2.448       .  S
Cd677       O678   2.471       .  S
Cd677       O681   2.478   1_545  S
Cd677       O679   2.438       .  S
C680        O684   1.264       .  A
C680        C686   1.472   1_545  S
C685        H687   1.087       .  S
C685        C686   1.345   1_545  D
C686        H688   1.087       .  S
C689        H691   1.087       .  S
C689        C690   1.340       .  D
C690        H692   1.087       .  S
C693        H695   1.086       .  S
C693        C694   1.344       .  D
C694        H696   1.087       .  S
C697        H699   1.086       .  S
C697        C698   1.345       .  D
C698        H700   1.087       .  S
C701        H703   1.086       .  S
C701        C702   1.347       .  D
C702        H704   1.087       .  S
C705        H707   1.086       .  S
C705        C706   1.342       .  D
C706        H708   1.087   1_545  S
C709        H711   1.087       .  S
C709        C710   1.341       .  D
C710        H712   1.086       .  S
C713        H715   1.087       .  S
C713        C714   1.347   1_545  D
C714        H716   1.087       .  S
C717        H719   1.087       .  S
C717        C718   1.343       .  D
C718        H720   1.087       .  S
C721        H723   1.087       .  S
C721        C722   1.342       .  D
C722        H724   1.086       .  S
C725        H727   1.087       .  S
C725        C726   1.339       .  D
C726        H728   1.087   1_455  S
C729        H731   1.087       .  S
C729        C730   1.342       .  D
C730        H732   1.086       .  S
C733        H735   1.087       .  S
C733        C734   1.347       .  D
C734        H736   1.087   1_455  S
C737        H739   1.087       .  S
C737        C738   1.342       .  D
C738        H740   1.087       .  S
C741        H743   1.087       .  S
C741        C742   1.342       .  D
C742        H744   1.087       .  S
C745        H747   1.087       .  S
C745        C746   1.340       .  D
C746        H748   1.086       .  S
C749        H751   1.087       .  S
C749        C750   1.343       .  D
C750        H752   1.087       .  S
C753        H755   1.087       .  S
C753        C754   1.342       .  D
C754        H756   1.087       .  S
C757        H759   1.087   1_655  S
C757        C758   1.353       .  D
C758        H760   1.079       .  S
C761        H763   1.088   1_545  S
C761        C762   1.339       .  D
C762        H764   1.087       .  S
C765        H767   1.085       .  S
C765        C766   1.345       .  D
C766        H768   1.087       .  S
C769        H771   1.087       .  S
C769        C770   1.347       .  D
C770        H772   1.086       .  S
C773        H775   1.087       .  S
C773        C774   1.349       .  D
C774        H776   1.086       .  S
C777        H779   1.085       .  S
C777        C778   1.346       .  D
C778        H780   1.086       .  S
C781        H783   1.086       .  S
C781        C782   1.357       .  D
C782        H784   1.078       .  S
C785        H787   1.087       .  S
C785        C786   1.349       .  D
C786        H788   1.081       .  S
C789        H791   1.088       .  S
C789        C790   1.349       .  D
C790        H792   1.086       .  S
C793        H795   1.087       .  S
C793        C794   1.350       .  D
C794        H796   1.086       .  S
C797        H799   1.084       .  S
C797        C798   1.345       .  D
C798        H800   1.084       .  S
C801        H803   1.087       .  S
C801        C802   1.352       .  D
C802        H804   1.087       .  S
C805        H807   1.087       .  S
C805        C806   1.346       .  D
C806        H808   1.087   1_655  S
C809        H811   1.086       .  S
C809        C810   1.347       .  D
C810        H812   1.088       .  S
C813        H815   1.087       .  S
C813        C814   1.345       .  D
C814        H816   1.086       .  S
C817        H819   1.087       .  S
C817        C818   1.352       .  D
C818        H820   1.086       .  S
C821        H823   1.085       .  S
C821        C822   1.349       .  D
C822        H824   1.086       .  S
C825        H827   1.086       .  S
C825        C826   1.352       .  D
C826        H828   1.085       .  S
C829        H831   1.087       .  S
C829        C830   1.349       .  D
C830        H832   1.087       .  S
C833        H835   1.085       .  S
C833        C834   1.345       .  D
C834        H836   1.085       .  S
C837        H839   1.086       .  S
C837        C838   1.345       .  D
C838        H840   1.088       .  S
C841        H843   1.086       .  S
C841        C842   1.346       .  D
C842        H844   1.087       .  S
C845        H847   1.086       .  S
C845        C846   1.342       .  D
C846        H848   1.088       .  S
C849        H851   1.084       .  S
C849        C850   1.356       .  D
C850        H852   1.084       .  S
C853        H855   1.085       .  S
C853        C854   1.350       .  D
C854        H856   1.086       .  S
C857        H859   1.087       .  S
C857        C858   1.349       .  D
C858        H860   1.087       .  S
C861        H863   1.088       .  S
C861        C862   1.350       .  D
C862        H864   1.086       .  S
C865        H867   1.087       .  S
C865        C866   1.342       .  D
C866        H868   1.087       .  S
C869        H871   1.088       .  S
C869        C870   1.339       .  D
C870        H872   1.087       .  S
C873        H875   1.085       .  S
C873        C874   1.346   1_455  D
C874        H876   1.086       .  S
C877        H879   1.087       .  S
C877        C878   1.341       .  D
C878        H880   1.087       .  S
C881        H883   1.086       .  S
C881        C882   1.346       .  D
C882        H884   1.087       .  S
C885        H887   1.087       .  S
C885        C886   1.341       .  D
C886        H888   1.087       .  S
C889        H891   1.085   1_545  S
C889        C890   1.352       .  D
C890        H892   1.086       .  S
C893        H895   1.087       .  S
C893        C894   1.344       .  D
C894        H896   1.087       .  S
C897        H899   1.087       .  S
C897        C898   1.343       .  D
C898        H900   1.086       .  S
C901        H903   1.086       .  S
C901        C902   1.348       .  D
C902        H904   1.086       .  S
C905        H907   1.087       .  S
C905        C906   1.342       .  D
C906        H908   1.087       .  S
C909        H911   1.087   1_455  S
C909        C910   1.341       .  D
C910        H912   1.087       .  S
C913        H915   1.087       .  S
C913        C914   1.342       .  D
C914        H916   1.087       .  S
C917        H919   1.085       .  S
C917        C918   1.351   1_455  D
C918        H920   1.086       .  S
C921        H923   1.086       .  S
C921        C922   1.347       .  D
C922        H924   1.087       .  S
C925        H927   1.087       .  S
C925        C926   1.341       .  D
C926        H928   1.086       .  S
C929        H931   1.086       .  S
C929        C930   1.346       .  D
C930        H932   1.087       .  S
C933        H935   1.086       .  S
C933        C934   1.345       .  D
C934        H936   1.087       .  S
C937        H939   1.087       .  S
C937        C938   1.341       .  D
C938        H940   1.086       .  S
C941        H943   1.086   1_545  S
C941        C942   1.343       .  D
C942        H944   1.087       .  S
C945        H947   1.087   1_565  S
C945        C946   1.349       .  D
C946        H948   1.087       .  S
C949        H951   1.087       .  S
C949        C950   1.349       .  D
C950        H952   1.085       .  S
C953        H955   1.085   1_545  S
C953        C954   1.348       .  D
C954        H956   1.086       .  S
C957        H959   1.086       .  S
C957        C958   1.348       .  D
C958        H960   1.086   1_565  S
C961        H963   1.087       .  S
C961        C962   1.344   1_556  D
C962        H964   1.086       .  S
C965        H967   1.086       .  S
C965        C966   1.349       .  D
C966        H968   1.086       .  S
C969        H971   1.085       .  S
C969        C970   1.344   1_554  D
C970        H972   1.087       .  S
C973        H975   1.084       .  S
C973        C974   1.347       .  D
C974        H976   1.086       .  S
C977        H979   1.086       .  S
C977        C978   1.343       .  D
C978        H980   1.088   1_554  S
C981        H983   1.086   1_554  S
C981        C982   1.347       .  D
C982        H984   1.084       .  S
C985        H987   1.087       .  S
C985        C986   1.347       .  D
C986        H988   1.086       .  S
C989        H991   1.086   1_554  S
C989        C990   1.349       .  D
C990        H992   1.085       .  S
C993        H995   1.085   1_554  S
C993        C994   1.347       .  D
C994        H996   1.086       .  S
C997        H999   1.082       .  S
C997        C998   1.353       .  D
C998       H1000   1.087       .  S
C1001      H1003   1.085       .  S
C1001      C1002   1.351       .  D
C1002      H1004   1.086       .  S
C1005      H1007   1.087       .  S
C1005      C1006   1.350       .  D
C1006      H1008   1.087       .  S
C1009      H1011   1.086       .  S
C1009      C1010   1.347       .  D
C1010      H1012   1.087       .  S
C1013      H1015   1.086       .  S
C1013      C1014   1.344       .  D
C1014      H1016   1.087       .  S
C1017      H1019   1.084       .  S
C1017      C1018   1.347       .  D
C1018      H1020   1.086       .  S
C1021      H1023   1.087       .  S
C1021      C1022   1.347       .  D
C1022      H1024   1.087       .  S
C1025      H1027   1.086       .  S
C1025      C1026   1.346   1_545  D
C1026      H1028   1.087       .  S
C1029      H1031   1.084       .  S
C1029      C1030   1.351       .  D
C1030      H1032   1.086       .  S
C1033      H1035   1.087       .  S
C1033      C1034   1.343       .  D
C1034      H1036   1.087       .  S
C1037      H1039   1.086       .  S
C1037      C1038   1.347   1_565  D
C1038      H1040   1.086       .  S
C1041      H1043   1.087       .  S
C1041      C1042   1.343       .  D
C1042      H1044   1.087       .  S
C1045      H1047   1.086       .  S
C1045      C1046   1.347       .  D
C1046      H1048   1.085       .  S
C1049      H1051   1.087       .  S
C1049      C1050   1.343       .  D
C1050      H1052   1.087       .  S
C1053      H1055   1.086       .  S
C1053      C1054   1.351       .  D
C1054      H1056   1.086       .  S
C1057      H1059   1.086       .  S
C1057      C1058   1.350       .  D
C1058      H1060   1.086       .  S
C1061      H1063   1.087       .  S
C1061      C1062   1.344       .  D
C1062      H1064   1.087       .  S
C1065      H1067   1.087       .  S
C1065      C1066   1.340       .  D
C1066      H1068   1.087       .  S
C1069      H1071   1.086       .  S
C1069      C1070   1.349       .  D
C1070      H1072   1.087       .  S
C1073      H1075   1.087       .  S
C1073      C1074   1.343       .  D
C1074      H1076   1.086       .  S
C1077      H1079   1.087       .  S
C1077      C1078   1.344       .  D
C1078      H1080   1.086       .  S
C1081      H1083   1.085       .  S
C1081      C1082   1.348       .  D
C1082      H1084   1.086       .  S
C1085      H1087   1.087       .  S
C1085      C1086   1.348       .  D
C1086      H1088   1.087       .  S
C1089      H1091   1.086       .  S
C1089      C1090   1.341       .  D
C1090      H1092   1.087       .  S
C1093      H1095   1.086   1_565  S
C1093      C1094   1.340       .  D
C1094      H1096   1.087       .  S
C1097      H1099   1.087   1_565  S
C1097      C1098   1.346       .  D
C1098      H1100   1.087       .  S
C1101      H1103   1.087       .  S
C1101      C1102   1.341       .  D
C1102      H1104   1.087       .  S
C1105      H1107   1.085       .  S
C1105      C1106   1.349       .  D
C1106      H1108   1.086       .  S
C1109      H1111   1.087       .  S
C1109      C1110   1.343       .  D
C1110      H1112   1.087       .  S
C1113      H1115   1.087       .  S
C1113      C1114   1.344   1_565  D
C1114      H1116   1.087       .  S
