geometry optimzed in LAMMPS
_audit_creation_date              2020-11-30 
_audit_creation_method            'lammps2cif' 
_symmetry_space_group_name_H-M    'P1' 
_symmetry_Int_Tables_number       1 
_symmetry_cell_setting            triclinic 
loop_ 
_symmetry_equiv_pos_as_xyz 
  x,y,z 
_cell_length_a                    41.92912226 
_cell_length_b                    41.67415176519019 
_cell_length_c                    48.61627450195492 
_cell_angle_alpha                 90.56246990687984 
_cell_angle_beta                  89.69874286140566 
_cell_angle_gamma                 119.2427404496311 
loop_ 
_atom_site_label 
_atom_site_type_symbol 
_atom_site_fract_x 
_atom_site_fract_y 
_atom_site_fract_z 
_atom_site_charge 
O1          O  0.38377333  0.22825014  0.87264720    -0.78200
C2          C  0.36535657  0.11255708  0.87769129     0.82800
O3          O  0.38344548  0.18911012  0.77752852    -0.79300
O4          O  0.28931164  0.07096812  0.80687861    -0.80800
O5          O  0.25407311  0.14218042  0.86957786    -0.80600
O6          O  0.32950425  0.22553677  0.87426878    -0.79200
Zn7        Zn  0.37632718  0.18397048  0.84860590     1.55700
O8          O  0.25475321  0.08956372  0.86188690    -0.80600
Cd9        Cd  0.29885696  0.18075397  0.84833321     1.59700
Cd10       Cd  0.32891152  0.16084264  0.79067617     1.59600
O11         O  0.27967811  0.19985784  0.81721546    -0.80600
O12         O  0.32770054  0.15827348  0.83218845    -1.91100
Cd13       Cd  0.30292386  0.10469042  0.84118621     1.59900
O14         O  0.30291637  0.19007559  0.77848350    -0.80600
O15         O  0.33456506  0.09236849  0.86633772    -0.79200
C16         C  0.41356214  0.20582325  0.79074179     0.83300
C17         C  0.36316961  0.24105297  0.88087901     0.83000
O18         O  0.38344777  0.14718769  0.87292243    -0.78200
C19         C  0.24016096  0.10752606  0.87209713     0.83800
O20         O  0.41377262  0.20546384  0.81710034    -0.78300
C21         C  0.28436640  0.20236517  0.79127173     0.83900
C22         C  0.28781594  0.07584644  0.78122413     0.84200
O23         O  0.30111856  0.10827730  0.77143129    -0.80700
C24         C  0.16053141  0.32201832  0.68166545    -0.02200
C25         C  0.99780739  0.99460542  0.97843737    -0.02200
O26         O  0.42500493  0.48274496  0.53514704    -0.78200
C27         C  0.02953980  0.07904338  0.54701930     0.82800
O28         O  0.47602283  0.02383890  0.44388262    -0.79300
O29         O  0.08997586  0.04889758  0.47987257    -0.80800
O30         O  0.02071235  0.44598705  0.54079680    -0.80600
O31         O  0.43566074  0.43694675  0.54455015    -0.79200
Zn32       Zn  0.46979428  0.01736569  0.51357328     1.55700
O33         O  0.06950819  0.50210640  0.53803155    -0.80600
Cd34       Cd  0.48012586  0.44846346  0.51784928     1.59700
Cd35       Cd  0.50071004  0.49585217  0.45974785     1.59600
O36         O  0.46314277  0.40922007  0.48592119    -0.80600
O37         O  0.50068779  0.49851044  0.50109672    -1.91100
Cd38       Cd  0.05328645  0.03087288  0.51348910     1.59900
O39         O  0.47347775  0.44102215  0.44697888    -0.80600
O40         O  0.05518577  0.07371083  0.53766027    -0.79200
C41         C  0.45886813  0.03848506  0.45570920     0.83300
C42         C  0.41657085  0.45307398  0.54783585     0.83000
O43         O  0.99656964  0.05887973  0.53970678    -0.78200
C44         C  0.05382554  0.46913690  0.54677568     0.83800
O45         O  0.45440255  0.03723099  0.48170327    -0.78300
C46         C  0.46175741  0.41059662  0.45965600     0.83900
C47         C  0.08606961  0.03930014  0.45447123     0.84200
O48         O  0.05461423  0.01822039  0.44413041    -0.80700
C49         C  0.33332780  0.16302370  0.35188009    -0.02200
C50         C  0.16229845  0.32604529  0.64407679    -0.02200
O51         O  0.24365807  0.40205142  0.13074144    -0.78200
C52         C  0.12906379  0.37519160  0.11955037     0.82800
O53         O  0.19697313  0.38819651  0.22259691    -0.79300
O54         O  0.08527113  0.29344036  0.18471895    -0.80800
O55         O  0.16609299  0.26892000  0.12360611    -0.80600
O56         O  0.24746800  0.35059854  0.12771643    -0.79200
Zn57       Zn  0.19683934  0.38806326  0.15240165     1.55700
O58         O  0.11136069  0.26246507  0.13263147    -0.80600
Cd59       Cd  0.20069111  0.31270623  0.14928757     1.59700
Cd60       Cd  0.17351315  0.33521661  0.20651495     1.59600
O61         O  0.21732686  0.29079878  0.18108662    -0.80600
O62         O  0.17393002  0.33740880  0.16522171    -1.91100
Cd63       Cd  0.12195052  0.31013438  0.15261824     1.59900
O64         O  0.20347463  0.31027687  0.21977963    -0.80600
O65         O  0.10984780  0.34178609  0.12676918    -0.79200
C66         C  0.20905850  0.41945043  0.21120094     0.83300
C67         C  0.26007151  0.38472786  0.12261363     0.83000
O68         O  0.16201111  0.39497466  0.12762295    -0.78200
C69         C  0.13124987  0.25095143  0.12135980     0.83800
O70         O  0.20972154  0.42302471  0.18512567    -0.78300
C71         C  0.21780130  0.29327923  0.20732438     0.83900
C72         C  0.08876100  0.29278952  0.21063596     0.84200
O73         O  0.12005796  0.30647796  0.22217704    -0.80700
C74         C  0.00695197  0.00271366  0.01491470    -0.02200
C75         C  0.33961384  0.16619638  0.31524583    -0.02200
C76         C  0.46540943  0.48554820  0.02891164     0.01600
C77         C  0.45148069  0.50832856  0.04170808     0.04400
C78         C  0.41863448  0.49340390  0.05756874    -0.11600
C79         C  0.39567247  0.45566908  0.05954657     0.23700
C80         C  0.40518990  0.43222166  0.04561935    -0.12200
C81         C  0.43985444  0.44576685  0.03241010     0.05200
C82         C  0.36104102  0.44022319  0.07635969     0.27600
C83         C  0.36162188  0.43474603  0.10500489    -0.12900
C84         C  0.32871939  0.41792229  0.12025481     0.05700
C85         C  0.29481070  0.40488322  0.10689627    -0.08800
C86         C  0.29425610  0.41177511  0.07861061     0.06500
C87         C  0.32724259  0.43028977  0.06361791    -0.13200
Br88       Br  0.36887226  0.38016803  0.04517156    -0.05300
Br89       Br  0.47467643  0.06190586  0.04087041     0.00300
Br90       Br  0.32996582  0.41416750  0.15973422     0.00800
Br91       Br  0.32635093  0.44310502  0.02578447    -0.03600
Br92       Br  0.44901228  0.40497968  0.02560169     0.00900
Br93       Br  0.40488918  0.02635668  0.07813656    -0.02900
Br94       Br  0.40740299  0.45085514  0.12366233    -0.03800
Br95       Br  0.24811655  0.39524591  0.06031994     0.00200
C96         C  0.03456701  0.04439710  0.02807264     0.01600
C97         C  0.05785528  0.08038816  0.01587344     0.04400
C98         C  0.06977584  0.11377487  0.03136075    -0.11600
C99         C  0.06229067  0.11292208  0.05949835     0.23700
C100        C  0.04431480  0.07883237  0.07230015    -0.12200
C101        C  0.03909267  0.04745264  0.05766657     0.05200
C102        C  0.07895682  0.14761245  0.07619088     0.27600
C103        C  0.11267465  0.15926189  0.08962505    -0.12900
C104        C  0.12896911  0.19210920  0.10514140     0.05700
C105        C  0.11322783  0.21540753  0.10570576    -0.08800
C106        C  0.07938802  0.20372672  0.09191111     0.06500
C107        C  0.06231206  0.16983327  0.07762359    -0.13200
Br108      Br  0.03410018  0.07552829  0.11121546    -0.05300
Br109      Br  0.08371644  0.09114584  0.98188381     0.00300
Br110      Br  0.17129215  0.20274544  0.12735259     0.00800
Br111      Br  0.01634085  0.15431145  0.05927058    -0.03600
Br112      Br  0.57622439  0.03908986  0.07368957     0.00900
Br113      Br  0.09672133  0.16210888  0.01454494    -0.02900
Br114      Br  0.13773646  0.13105319  0.08603506    -0.03800
Br115      Br  0.05579658  0.23368983  0.09142113     0.00200
C116        C  0.02592824  0.48082938  0.02985807     0.01600
C117        C  0.06273781  0.48785848  0.02378495     0.04400
C118        C  0.07832366  0.46775553  0.03608262    -0.11600
C119        C  0.05966370  0.44205176  0.05657004     0.23700
C120        C  0.02670825  0.43841982  0.06622220    -0.12200
C121        C  0.01300937  0.46101383  0.05590453     0.05200
C122        C  0.07823650  0.42484586  0.07201546     0.27600
C123        C  0.07673184  0.39196895  0.06264235    -0.12900
C124        C  0.09347280  0.37560179  0.07796035     0.05700
C125        C  0.11211972  0.39222757  0.10265159    -0.08800
C126        C  0.11370542  0.42509960  0.11191962     0.06500
C127        C  0.09729780  0.44147970  0.09657362    -0.13200
Br128      Br  0.00253010  0.40483859  0.09632002    -0.05300
Br129      Br  0.09885226  0.53151255  0.00750977     0.00300
Br130      Br  0.09151002  0.33089127  0.06469066     0.00800
Br131      Br  0.10122363  0.48687518  0.10977422    -0.03600
Br132      Br  0.48607163  0.47109063  0.08438816     0.00900
Br133      Br  0.12693976  0.47650144  0.02638831    -0.02900
Br134      Br  0.05204689  0.36947692  0.02874269    -0.03800
Br135      Br  0.13601156  0.44661025  0.14691671     0.00200
C136        C  0.31862535  0.18666889  0.30145319     0.01600
C137        C  0.28438092  0.16760872  0.28600992     0.04400
C138        C  0.27028642  0.18653989  0.27019003    -0.11600
C139        C  0.28681812  0.22474565  0.27057532     0.23700
C140        C  0.31917185  0.24473377  0.28517961    -0.12200
C141        C  0.33672095  0.22698919  0.29811081     0.05200
C142        C  0.27028706  0.24393688  0.25485945     0.27600
C143        C  0.28403028  0.25914854  0.22879561    -0.12900
C144        C  0.26760812  0.27598664  0.21362118     0.05700
C145        C  0.23587449  0.27623585  0.22373716    -0.08800
C146        C  0.22197222  0.26046420  0.24985267     0.06500
C147        C  0.23997925  0.24582313  0.26562836    -0.13200
Br148      Br  0.33891092  0.29773955  0.28722601    -0.05300
Br149      Br  0.25248434  0.11574408  0.28384035     0.00300
Br150      Br  0.29045807  0.30022661  0.17959803     0.00800
Br151      Br  0.22370465  0.22895802  0.30252178    -0.03600
Br152      Br  0.38655369  0.26289671  0.30814849     0.00900
Br153      Br  0.22790459  0.16055654  0.24623757    -0.02900
Br154      Br  0.32577182  0.25711973  0.21389583    -0.03800
Br155      Br  0.17664689  0.25586192  0.26373919     0.00200
C156        C  0.22451923  0.45278429  0.22873907     0.01600
C157        C  0.26005917  0.46678342  0.23918173     0.04400
C158        C  0.27613789  0.49966783  0.25461218    -0.11600
C159        C  0.25730851  0.01895703  0.25981215     0.23700
C160        C  0.22027300  0.50375959  0.25046410    -0.12200
C161        C  0.20441732  0.47093706  0.23472444     0.05200
C162        C  0.27654669  0.05571562  0.27398331     0.27600
C163        C  0.27417149  0.05915477  0.30266842    -0.12900
C164        C  0.30268233  0.08987422  0.31666815     0.05700
C165        C  0.32481847  0.12400598  0.30243284    -0.08800
C166        C  0.33076191  0.11646939  0.27440316     0.06500
C167        C  0.30376698  0.08584436  0.25979422    -0.13200
Br168      Br  0.19296677  0.02819595  0.25859901    -0.05300
Br169      Br  0.28716754  0.44122211  0.23142638     0.00300
Br170      Br  0.32747754  0.06340289  0.32787693     0.00800
Br171      Br  0.30607066  0.08409196  0.22017556    -0.03600
Br172      Br  0.15504497  0.45051760  0.22140718     0.00900
Br173      Br  0.32549174  0.51836476  0.26760089    -0.02900
Br174      Br  0.23633445  0.51843978  0.32302254    -0.03800
Br175      Br  0.37740703  0.12237671  0.26286776     0.00200
C176        C  0.05507316  0.27501064  0.22745498     0.01600
C177        C  0.03332390  0.23641839  0.22712920     0.04400
C178        C  0.99962714  0.21934970  0.24123568    -0.11600
C179        C  0.48756205  0.24071495  0.25611019     0.23700
C180        C  0.00992228  0.27943439  0.25687997    -0.12200
C181        C  0.04315072  0.29649080  0.24213263     0.05200
C182        C  0.45134899  0.22286459  0.27073050     0.27600
C183        C  0.41915209  0.21389737  0.25674503    -0.12900
C184        C  0.38465832  0.19716672  0.27058014     0.05700
C185        C  0.38095484  0.19004688  0.30065003    -0.08800
C186        C  0.41698532  0.20815607  0.31381390     0.06500
C187        C  0.44990682  0.21852613  0.29902124    -0.13200
Br188      Br  0.49503803  0.30915456  0.27818254    -0.05300
Br189      Br  0.04992023  0.20701362  0.20716053     0.00300
Br190      Br  0.34528062  0.18528323  0.24434339     0.00800
Br191      Br  0.49527402  0.22927308  0.31748770    -0.03600
Br192      Br  0.07137707  0.34940498  0.24046530     0.00900
Br193      Br  0.47002658  0.16663639  0.23997878    -0.02900
Br194      Br  0.42356002  0.22348101  0.21738675    -0.03800
Br195      Br  0.43010206  0.23088265  0.34907666     0.00200
C196        C  0.11901059  0.05321202  0.43633785     0.01600
C197        C  0.13367881  0.03028752  0.42853084     0.04400
C198        C  0.16605171  0.04423767  0.41253209    -0.11600
C199        C  0.18354619  0.08101334  0.40338235     0.23700
C200        C  0.16786296  0.10343337  0.41042809    -0.12200
C201        C  0.13605491  0.08967588  0.42688409     0.05200
C202        C  0.22072252  0.09830781  0.38990017     0.27600
C203        C  0.25107094  0.12178643  0.40571406    -0.12900
C204        C  0.28364795  0.14843596  0.39311514     0.05700
C205        C  0.29098109  0.14704020  0.36384890    -0.08800
C206        C  0.25731150  0.12706338  0.34858287     0.06500
C207        C  0.22528858  0.09842741  0.36114709    -0.13200
Br208      Br  0.19073345  0.15389782  0.39859581    -0.05300
Br209      Br  0.10997444  0.97995597  0.44058742     0.00300
Br210      Br  0.29855504  0.19338095  0.41362822     0.00800
Br211      Br  0.18424770  0.06486799  0.33881390    -0.03600
Br212      Br  0.11553627  0.12083478  0.43662004     0.00900
Br213      Br  0.18745495  0.01352462  0.40449879    -0.02900
Br214      Br  0.24741424  0.11796418  0.44547364    -0.03800
Br215      Br  0.23456891  0.15462286  0.33534918     0.00200
C216        C  0.35411906  0.20211003  0.36868035     0.01600
C217        C  0.34864120  0.23330613  0.36349838     0.04400
C218        C  0.37113274  0.26855909  0.37548297    -0.11600
C219        C  0.39573668  0.27339112  0.39643483     0.23700
C220        C  0.39788821  0.24281974  0.40545498    -0.12200
C221        C  0.37496361  0.20733473  0.39405304     0.05200
C222        C  0.41349140  0.30867270  0.41269606     0.27600
C223        C  0.44688664  0.33866705  0.40419521    -0.12900
C224        C  0.46355238  0.37143339  0.42008625     0.05700
C225        C  0.44544273  0.37563536  0.44337544    -0.08800
C226        C  0.41110176  0.34627979  0.45087401     0.06500
C227        C  0.39600059  0.31264687  0.43638578    -0.13200
Br228      Br  0.43237262  0.25005066  0.43446204    -0.05300
Br229      Br  0.30311312  0.22900533  0.35185828     0.00300
Br230      Br  0.51209338  0.40951188  0.41071584     0.00800
Br231      Br  0.35088350  0.27231882  0.44924028    -0.03600
Br232      Br  0.36408918  0.17009659  0.42144190     0.00900
Br233      Br  0.36609917  0.31082890  0.36520893    -0.02900
Br234      Br  0.46902564  0.33514715  0.37026997    -0.03800
Br235      Br  0.38283876  0.35293540  0.47950786     0.00200
C236        C  0.34978804  0.13686316  0.36362541     0.01600
C237        C  0.33051961  0.10505580  0.38154593     0.04400
C238        C  0.34960160  0.09198032  0.39834284    -0.11600
C239        C  0.38785833  0.10860863  0.39774625     0.23700
C240        C  0.40697943  0.13898087  0.38061451    -0.12200
C241        C  0.38787309  0.14693134  0.36038684     0.05200
C242        C  0.40732331  0.09118208  0.41209099     0.27600
C243        C  0.43092732  0.10892089  0.43450510    -0.12900
C244        C  0.45038143  0.09313338  0.44674668     0.05700
C245        C  0.44326180  0.05744143  0.43921275    -0.08800
C246        C  0.41920403  0.03921909  0.41725071     0.06500
C247        C  0.40255580  0.05658327  0.40305929    -0.13200
Br248      Br  0.45997700  0.16361387  0.37938746    -0.05300
Br249      Br  0.27928310  0.07081996  0.38037468     0.00300
Br250      Br  0.48952355  0.12201282  0.47190246     0.00800
Br251      Br  0.37316770  0.03227974  0.37125088    -0.03600
Br252      Br  0.40526182  0.13495976  0.32721458     0.00900
Br253      Br  0.32388448  0.05291527  0.42477709    -0.02900
Br254      Br  0.43571500  0.15408933  0.44947467    -0.03800
Br255      Br  0.40769227  0.49067707  0.40755138     0.00200
C256        C  0.38363904  0.43746326  0.56651826     0.01600
C257        C  0.37548558  0.46117644  0.58270246     0.04400
C258        C  0.34170396  0.44735112  0.59685533    -0.11600
C259        C  0.31581781  0.40961547  0.59553742     0.23700
C260        C  0.32492016  0.38569915  0.58089733    -0.12200
C261        C  0.35885426  0.39925830  0.56724763     0.05200
C262        C  0.27861600  0.39441396  0.60880604     0.27600
C263        C  0.27270689  0.38146064  0.63569543    -0.12900
C264        C  0.23761724  0.35236133  0.64358434     0.05700
C265        C  0.20412161  0.34540951  0.62986375    -0.08800
C266        C  0.21218349  0.36274943  0.60233499     0.06500
C267        C  0.24837162  0.38637861  0.59267225    -0.13200
Br268      Br  0.29007226  0.33402210  0.57830324    -0.05300
Br269      Br  0.41360438  0.01115667  0.58858284     0.00300
Br270      Br  0.24934999  0.31370935  0.64803445     0.00800
Br271      Br  0.25832361  0.41065701  0.55714609    -0.03600
Br272      Br  0.37063581  0.36456009  0.54990898     0.00900
Br273      Br  0.33028490  0.48012604  0.61759761    -0.02900
Br274      Br  0.31610478  0.39639643  0.65807893    -0.03800
Br275      Br  0.17772421  0.35290377  0.57320451     0.00200
C276        C  0.13602712  0.28625073  0.63032281     0.01600
C277        C  0.09722182  0.26500551  0.63760662     0.04400
C278        C  0.07545055  0.22805463  0.62854634    -0.11600
C279        C  0.08825925  0.21314656  0.60845429     0.23700
C280        C  0.12190206  0.23527691  0.59607757    -0.12200
C281        C  0.14677104  0.26997865  0.60748901     0.05200
C282        C  0.06558348  0.17487798  0.59806523     0.27600
C283        C  0.07448738  0.14750269  0.60530018    -0.12900
C284        C  0.06211933  0.11557852  0.58898718     0.05700
C285        C  0.03820877  0.10951036  0.56683222    -0.08800
C286        C  0.02326900  0.13326799  0.56371701     0.06500
C287        C  0.03909191  0.16722261  0.57766338    -0.13200
Br288      Br  0.13317556  0.21638510  0.56263118    -0.05300
Br289      Br  0.06665251  0.28539103  0.65135317     0.00300
Br290      Br  0.07619048  0.07919138  0.59810275     0.00800
Br291      Br  0.02677849  0.20434360  0.56699416    -0.03600
Br292      Br  0.19513085  0.28531414  0.59256499     0.00900
Br293      Br  0.02589016  0.19766164  0.64166235    -0.02900
Br294      Br  0.10380160  0.15376416  0.63726413    -0.03800
Br295      Br  0.98025723  0.11960875  0.54194290     0.00200
C296        C  0.07460310  0.45705000  0.56441983     0.01600
C297        C  0.10468177  0.45469335  0.55366034     0.04400
C298        C  0.12046381  0.43741154  0.56888744    -0.11600
C299        C  0.10835224  0.42517781  0.59593745     0.23700
C300        C  0.08048822  0.43074095  0.60757563    -0.12200
C301        C  0.06302356  0.44570321  0.59160521     0.05200
C302        C  0.12115809  0.40183475  0.61018213     0.27600
C303        C  0.10014876  0.36390678  0.60774377    -0.12900
C304        C  0.11571003  0.34132256  0.61296708     0.05700
C305        C  0.14779991  0.35342970  0.63121247    -0.08800
C306        C  0.16965689  0.39389492  0.63218167     0.06500
C307        C  0.15619970  0.41685822  0.62150655    -0.13200
Br308      Br  0.06462374  0.41556947  0.64477975    -0.05300
Br309      Br  0.12329185  0.47362270  0.51754649     0.00300
Br310      Br  0.09478725  0.30045712  0.58597192     0.00800
Br311      Br  0.18536622  0.47008000  0.62207211    -0.03600
Br312      Br  0.02301836  0.45062487  0.60684188     0.00900
Br313      Br  0.15642081  0.42757284  0.55163897    -0.02900
Br314      Br  0.05050774  0.34310024  0.59343220    -0.03800
Br315      Br  0.22020308  0.42234163  0.64452983     0.00200
C316        C  0.37904296  0.27596963  0.89722262     0.01600
C317        C  0.37089019  0.27614709  0.92542447     0.04400
C318        C  0.38597444  0.30965387  0.94050836    -0.11600
C319        C  0.40829652  0.34355128  0.92731871     0.23700
C320        C  0.41562566  0.34318807  0.89890672    -0.12200
C321        C  0.40171836  0.30966085  0.88414757     0.05200
C322        C  0.42827380  0.37866493  0.94393580     0.27600
C323        C  0.41161281  0.39916042  0.95241565    -0.12900
C324        C  0.43146278  0.43285879  0.96747596     0.05700
C325        C  0.47094756  0.44941772  0.97262973    -0.08800
C326        C  0.48341940  0.42252042  0.96888000     0.06500
C327        C  0.46341520  0.38953310  0.95333996    -0.13200
Br328      Br  0.44553494  0.38853390  0.88002257    -0.05300
Br329      Br  0.34056884  0.23018701  0.94365736     0.00300
Br330      Br  0.40054519  0.45244128  0.98097480     0.00800
Br331      Br  0.98383311  0.35747220  0.94460788    -0.03600
Br332      Br  0.41408319  0.30976053  0.84580026     0.00900
Br333      Br  0.37774176  0.30908500  0.97961942    -0.02900
Br334      Br  0.36100983  0.38066351  0.94220323    -0.03800
Br335      Br  0.02285168  0.42172380  0.98816399     0.00200
C336        C  0.20606513  0.08744318  0.88759867     0.01600
C337        C  0.20604049  0.09248005  0.91620151     0.04400
C338        C  0.17313017  0.07455199  0.93096533    -0.11600
C339        C  0.14043193  0.04987303  0.91739345     0.23700
C340        C  0.14089711  0.04406301  0.88869505    -0.12200
C341        C  0.17339188  0.06399892  0.87374561     0.05200
C342        C  0.10465663  0.03621919  0.93149942     0.27600
C343        C  0.08859227  0.00338752  0.94612812    -0.12900
C344        C  0.05096400  0.98662550  0.95182705     0.05700
C345        C  0.03344779  0.00831766  0.95712675    -0.08800
C346        C  0.04782963  0.03879971  0.93724609     0.06500
C347        C  0.08371867  0.05309871  0.92597779    -0.13200
Br348      Br  0.09631207  0.01188513  0.86922025    -0.05300
Br349      Br  0.25103638  0.12530405  0.93490645     0.00300
Br350      Br  0.03588913  0.45325014  0.92172520     0.00800
Br351      Br  0.10710955  0.09854993  0.90465448    -0.03600
Br352      Br  0.17219769  0.06333663  0.83407771     0.00900
Br353      Br  0.17284302  0.08711361  0.96900614    -0.02900
Br354      Br  0.11398774  0.97562455  0.95008002    -0.03800
Br355      Br  0.02575893  0.06585623  0.92240718     0.00200
C356        C  0.47480562  0.01332667  0.96533484     0.01600
C357        C  0.46811286  0.04083778  0.97831034     0.04400
C358        C  0.43835327  0.04583114  0.97024430    -0.10700
C359        C  0.42595071  0.03810092  0.94311439     0.23700
C360        C  0.43436781  0.01490282  0.92752997    -0.12200
C361        C  0.45718472  0.00166217  0.93835768     0.05200
C362        C  0.40990961  0.05915343  0.92929823     0.27600
C363        C  0.37189890  0.04576959  0.92859689    -0.12900
C364        C  0.35728988  0.06432357  0.91319952     0.05700
C365        C  0.38043471  0.09477427  0.89638702    -0.08800
C366        C  0.41832635  0.10740057  0.89693128     0.06500
C367        C  0.43292448  0.09152177  0.91467586    -0.13200
Br368      Br  0.41377556  0.00140835  0.89087946    -0.05300
Br369      Br  0.50642705  0.09099905  0.98085737     0.00300
Br370      Br  0.30570541  0.04818399  0.91626921     0.00800
Br371      Br  0.48490700  0.11621526  0.91926413    -0.03600
Br372      Br  0.46926979  0.47170529  0.91188929     0.00900
Br373      Br  0.42241355  0.07394328  0.99278200    -0.02900
Br374      Br  0.34011873  0.00195659  0.94879664    -0.03800
Br375      Br  0.45079976  0.14345073  0.87108626     0.00200
C376        C  0.17725843  0.29795327  0.69704477     0.01600
C377        C  0.18765787  0.27171593  0.68600417     0.04400
C378        C  0.20898175  0.26013172  0.70157599    -0.11600
C379        C  0.21911853  0.27226704  0.72860097     0.23700
C380        C  0.20701881  0.29487291  0.74050049    -0.12200
C381        C  0.17986857  0.29915957  0.72700974     0.05200
C382        C  0.23593030  0.25527029  0.74587695     0.27600
C383        C  0.21370307  0.21980632  0.75685567    -0.12900
C384        C  0.22964647  0.20236968  0.77157638     0.05700
C385        C  0.26772330  0.22040245  0.77560937    -0.08800
C386        C  0.28979070  0.25603798  0.76526972     0.06500
C387        C  0.27400843  0.27318048  0.74996359    -0.13200
Br388      Br  0.22039235  0.31250327  0.77785564    -0.05300
Br389      Br  0.16999818  0.24225290  0.65357186     0.00300
Br390      Br  0.19951951  0.15332588  0.78562027     0.00800
Br391      Br  0.30454304  0.32053015  0.73375149    -0.03600
Br392      Br  0.13825969  0.26813056  0.74996661     0.00900
Br393      Br  0.22555987  0.22721074  0.68642705    -0.02900
Br394      Br  0.16150045  0.19434950  0.75090049    -0.03800
Br395      Br  0.34144129  0.28178784  0.77312534     0.00200
C396        C  0.12104106  0.30325289  0.69894626     0.01600
C397        C  0.09334602  0.26406605  0.69955971     0.04400
C398        C  0.05881250  0.25121974  0.71312237    -0.11600
C399        C  0.05082252  0.27535190  0.72796541     0.23700
C400        C  0.07892089  0.31120636  0.73209398    -0.12200
C401        C  0.11448927  0.32199851  0.72219558     0.05200
C402        C  0.01621285  0.26066286  0.74464576     0.27600
C403        C  0.48406335  0.25811634  0.73361410    -0.12900
C404        C  0.45091805  0.24146117  0.74877750     0.05700
C405        C  0.44923985  0.22598192  0.77514566    -0.08800
C406        C  0.48224823  0.23003652  0.78636494     0.06500
C407        C  0.01525444  0.24750462  0.77139479    -0.13200
Br408      Br  0.06984597  0.34414366  0.75502637    -0.05300
Br409      Br  0.10133488  0.22378790  0.68987386     0.00300
Br410      Br  0.40891498  0.24238198  0.73345836     0.00800
Br411      Br  0.05954366  0.25280664  0.78756482    -0.03600
Br412      Br  0.15106492  0.35268898  0.74936404     0.00900
Br413      Br  0.02231904  0.19933849  0.71415893    -0.02900
Br414      Br  0.48588589  0.27784408  0.69755762    -0.03800
Br415      Br  0.48361589  0.21071399  0.82189187     0.00200
C416        C  0.18194433  0.36469976  0.69225453     0.01600
C417        C  0.16450059  0.38797320  0.69207838     0.04400
C418        C  0.18259026  0.42473501  0.70256268    -0.11600
C419        C  0.21571702  0.43876041  0.71683867     0.23700
C420        C  0.23249731  0.41695310  0.71876437    -0.12200
C421        C  0.21790663  0.38223309  0.70516044     0.05200
C422        C  0.23229856  0.47579119  0.73120602     0.27600
C423        C  0.26513900  0.00649222  0.72162690    -0.12900
C424        C  0.28283050  0.03953606  0.73729310     0.05700
C425        C  0.26846993  0.04236887  0.76308268    -0.08800
C426        C  0.23524896  0.01210133  0.77215719     0.06500
C427        C  0.21662112  0.48006220  0.75577163    -0.13200
Br428      Br  0.27565536  0.43498935  0.74197985    -0.05300
Br429      Br  0.11442532  0.37243031  0.68033264     0.00300
Br430      Br  0.32817379  0.07966305  0.72411663     0.00800
Br431      Br  0.17104696  0.44043852  0.76904109    -0.03600
Br432      Br  0.25162152  0.36354192  0.70559754     0.00900
Br433      Br  0.16237211  0.45731790  0.69728223    -0.02900
Br434      Br  0.28628499  0.00234558  0.68734239    -0.03800
Br435      Br  0.21365873  0.01376725  0.80697800     0.00200
O436        O  0.38498360  0.72966928  0.87215722    -0.78200
C437        C  0.36643558  0.61310558  0.87619236     0.82800
O438        O  0.38346821  0.68861698  0.77688139    -0.79300
O439        O  0.28816943  0.57167951  0.80606391    -0.80800
O440        O  0.25516816  0.64386572  0.86944914    -0.80600
O441        O  0.33061047  0.72663896  0.87399539    -0.79200
Zn442      Zn  0.37707693  0.68500809  0.84802399     1.55700
O443        O  0.25592219  0.59117585  0.86232263    -0.80600
Cd444      Cd  0.30002578  0.68203481  0.84807531     1.59700
Cd445      Cd  0.32921453  0.66147768  0.79013588     1.59600
O446        O  0.28159080  0.70178233  0.81709711    -0.80600
O447        O  0.32836075  0.65920139  0.83167452    -1.91100
Cd448      Cd  0.30329766  0.60559190  0.84048453     1.59900
O449        O  0.30441495  0.69187170  0.77817786    -0.80600
O450        O  0.33585579  0.59305935  0.86443752    -0.79200
C451        C  0.41371914  0.70561944  0.78987854     0.83300
C452        C  0.36427960  0.74231846  0.88051449     0.83000
O453        O  0.38408188  0.64789055  0.87212778    -0.78200
C454        C  0.24141004  0.60930351  0.87242323     0.83800
O455        O  0.41414679  0.70599297  0.81621739    -0.78300
C456        C  0.28634505  0.70453530  0.79117575     0.83900
C457        C  0.28700747  0.57657696  0.78035897     0.84200
O458        O  0.30088406  0.60906158  0.77056838    -0.80700
C459        C  0.16129012  0.82244486  0.68199208    -0.02200
C460        C  0.99810947  0.49413778  0.97823790    -0.02200
O461        O  0.42564458  0.98156435  0.53543865    -0.78200
C462        C  0.02966456  0.57970940  0.54694908     0.82800
O463        O  0.47564975  0.52480487  0.44384358    -0.79300
O464        O  0.08939076  0.54910147  0.47939326    -0.80800
O465        O  0.02195923  0.94550037  0.54094224    -0.80600
O466        O  0.43684845  0.93615480  0.54502218    -0.79200
Zn467      Zn  0.46953237  0.51844928  0.51348906     1.55700
O468        O  0.07036434  0.00191613  0.53848787    -0.80600
Cd469      Cd  0.48112144  0.94776569  0.51810855     1.59700
Cd470      Cd  0.50139338  0.99525376  0.45999882     1.59600
O471        O  0.46386399  0.90852383  0.48614740    -0.80600
O472        O  0.50132006  0.99780194  0.50135685    -1.91100
Cd473      Cd  0.05276368  0.53132738  0.51306865     1.59900
O474        O  0.47428923  0.94048293  0.44726458    -0.80600
O475        O  0.05515417  0.57430749  0.53733987    -0.79200
C476        C  0.45886186  0.53982761  0.45569397     0.83300
C477        C  0.41757991  0.95208787  0.54828204     0.83000
O478        O  0.99661022  0.55968033  0.53977839    -0.78200
C479        C  0.05495298  0.96887420  0.54707134     0.83800
O480        O  0.45456355  0.53878170  0.48170020    -0.78300
C481        C  0.46246898  0.91001604  0.45988777     0.83900
C482        C  0.08535970  0.53953087  0.45398386     0.84200
O483        O  0.05383410  0.51859357  0.44370368    -0.80700
C484        C  0.33281278  0.66329113  0.35143264    -0.02200
C485        C  0.16339104  0.82603521  0.64444333    -0.02200
O486        O  0.24376968  0.90247678  0.13064810    -0.78200
C487        C  0.12915616  0.87515651  0.11880809     0.82800
O488        O  0.19723582  0.88834609  0.22211552    -0.79300
O489        O  0.08513880  0.79408850  0.18430367    -0.80800
O490        O  0.16553748  0.76907396  0.12259599    -0.80600
O491        O  0.24744849  0.85099559  0.12709269    -0.79200
Zn492      Zn  0.19673053  0.88826122  0.15200635     1.55700
O493        O  0.11088302  0.76236898  0.13231380    -0.80600
Cd494      Cd  0.20039889  0.81281897  0.14838265     1.59700
Cd495      Cd  0.17346569  0.83537734  0.20590260     1.59600
O496        O  0.21704470  0.79073833  0.18005116    -0.80600
O497        O  0.17378098  0.83753992  0.16462978    -1.91100
Cd498      Cd  0.12175843  0.81024788  0.15214285     1.59900
O499        O  0.20365078  0.81053692  0.21876956    -0.80600
O500        O  0.10989954  0.84176110  0.12602324    -0.79200
C501        C  0.20917971  0.91963155  0.21079890     0.83300
C502        C  0.26023253  0.88526337  0.12239133     0.83000
O503        O  0.16202218  0.89502387  0.12703364    -0.78200
C504        C  0.13066262  0.75096317  0.12067687     0.83800
O505        O  0.20952463  0.92323181  0.18474097    -0.78300
C506        C  0.21780433  0.79340056  0.20628228     0.83900
C507        C  0.08862714  0.79335662  0.21021976     0.84200
O508        O  0.11994857  0.80674998  0.22171559    -0.80700
C509        C  0.00663340  0.50220607  0.01483267    -0.02200
C510        C  0.33915027  0.66638496  0.31479301    -0.02200
C511        C  0.46599289  0.98649729  0.02933220     0.01600
C512        C  0.45254229  0.00959548  0.04226015     0.04400
C513        C  0.41972491  0.99498372  0.05815228    -0.11600
C514        C  0.39631386  0.95730310  0.05996440     0.23700
C515        C  0.40547122  0.93363708  0.04598239    -0.12200
C516        C  0.44012419  0.94681803  0.03285658     0.05200
C517        C  0.36167654  0.94203297  0.07676188     0.27600
C518        C  0.36198478  0.93501378  0.10515294    -0.12900
C519        C  0.32894798  0.91749071  0.12021738     0.05700
C520        C  0.29517646  0.90574273  0.10692934    -0.08800
C521        C  0.29495077  0.91441555  0.07898783     0.06500
C522        C  0.32805664  0.93315668  0.06415558    -0.13200
Br523      Br  0.36847886  0.88183276  0.04503503    -0.05300
Br524      Br  0.47291225  0.56058479  0.04023467     0.00300
Br525      Br  0.32986978  0.91088892  0.15938893     0.00800
Br526      Br  0.32752787  0.94737960  0.02666570    -0.03600
Br527      Br  0.44868034  0.90565188  0.02607746     0.00900
Br528      Br  0.40309095  0.52440484  0.07731058    -0.02900
Br529      Br  0.40764132  0.94995545  0.12368309    -0.03800
Br530      Br  0.24904201  0.89986686  0.06090006     0.00200
C531        C  0.03371228  0.54397436  0.02805333     0.01600
C532        C  0.05664419  0.57993691  0.01573399     0.04400
C533        C  0.06799070  0.61337840  0.03095637    -0.11600
C534        C  0.06057539  0.61271826  0.05905945     0.23700
C535        C  0.04281005  0.57877591  0.07206256    -0.12200
C536        C  0.03784350  0.54728027  0.05770898     0.05200
C537        C  0.07757179  0.64751749  0.07558102     0.27600
C538        C  0.11185881  0.65953378  0.08816242    -0.12900
C539        C  0.12843498  0.69237518  0.10367999     0.05700
C540        C  0.11238633  0.71540470  0.10497457    -0.08800
C541        C  0.07802353  0.70340594  0.09186417     0.06500
C542        C  0.06066405  0.66942902  0.07767562    -0.13200
Br543      Br  0.03228777  0.57596203  0.11091751    -0.05300
Br544      Br  0.08310306  0.59081335  0.98206790     0.00300
Br545      Br  0.17156635  0.70327086  0.12491269     0.00800
Br546      Br  0.01393367  0.65326680  0.06032761    -0.03600
Br547      Br  0.57423841  0.53862103  0.07473825     0.00900
Br548      Br  0.09395142  0.66157146  0.01377788    -0.02900
Br549      Br  0.13723196  0.63176372  0.08331777    -0.03800
Br550      Br  0.05402447  0.73300436  0.09213979     0.00200
C551        C  0.02607925  0.98098623  0.02959299     0.01600
C552        C  0.06258347  0.98751682  0.02303577     0.04400
C553        C  0.07811574  0.96721931  0.03506673    -0.11600
C554        C  0.05973807  0.94181319  0.05577924     0.23700
C555        C  0.02704273  0.93849682  0.06575636    -0.12200
C556        C  0.01349640  0.96134132  0.05571487     0.05200
C557        C  0.07844648  0.92468109  0.07111733     0.27600
C558        C  0.07679126  0.89169435  0.06183393    -0.12900
C559        C  0.09387495  0.87557236  0.07703837     0.05700
C560        C  0.11229433  0.89213229  0.10181281    -0.08800
C561        C  0.11370696  0.92488623  0.11111707     0.06500
C562        C  0.09773448  0.94147783  0.09556082    -0.13200
Br563      Br  0.00283205  0.90471904  0.09571606    -0.05300
Br564      Br  0.09850270  0.03065840  0.00619645     0.00300
Br565      Br  0.09284758  0.83140314  0.06349356     0.00800
Br566      Br  0.10288220  0.98753630  0.10825172    -0.03600
Br567      Br  0.48726670  0.97183751  0.08452854     0.00900
Br568      Br  0.12611045  0.97500596  0.02442293    -0.02900
Br569      Br  0.05130018  0.86864748  0.02830632    -0.03800
Br570      Br  0.13495053  0.94580590  0.14651496     0.00200
C571        C  0.31826199  0.68690560  0.30091972     0.01600
C572        C  0.28398097  0.66786867  0.28551178     0.04400
C573        C  0.26998702  0.68682116  0.26961742    -0.11600
C574        C  0.28675755  0.72502865  0.26978663     0.23700
C575        C  0.31914111  0.74501122  0.28433593    -0.12200
C576        C  0.33652382  0.72722211  0.29743133     0.05200
C577        C  0.27036135  0.74421917  0.25395645     0.27600
C578        C  0.28320637  0.75798194  0.22741872    -0.12900
C579        C  0.26678859  0.77472315  0.21211892     0.05700
C580        C  0.23591760  0.77635578  0.22268744    -0.08800
C581        C  0.22290996  0.76196966  0.24931407     0.06500
C582        C  0.24094986  0.74738702  0.26509601    -0.13200
Br583      Br  0.33911478  0.79806688  0.28609516    -0.05300
Br584      Br  0.25196856  0.61601747  0.28338276     0.00300
Br585      Br  0.28852430  0.79677627  0.17723963     0.00800
Br586      Br  0.22589292  0.73221698  0.30247486    -0.03600
Br587      Br  0.38635940  0.76308139  0.30753893     0.00900
Br588      Br  0.22736769  0.66088432  0.24587821    -0.02900
Br589      Br  0.32365734  0.75396784  0.21203389    -0.03800
Br590      Br  0.17869260  0.75913565  0.26405656     0.00200
C591        C  0.22487124  0.95296455  0.22838434     0.01600
C592        C  0.26047036  0.96685267  0.23870409     0.04400
C593        C  0.27670350  0.99967253  0.25424248    -0.11600
C594        C  0.25661419  0.51886571  0.25998752     0.23700
C595        C  0.22096368  0.00401671  0.25032738    -0.12200
C596        C  0.20494083  0.97125345  0.23451177     0.05200
C597        C  0.27577436  0.55573811  0.27394340     0.27600
C598        C  0.27336009  0.55941752  0.30259332    -0.12900
C599        C  0.30196850  0.59013203  0.31649609     0.05700
C600        C  0.32423374  0.62412214  0.30213167    -0.08800
C601        C  0.33017906  0.61634190  0.27416805     0.06500
C602        C  0.30313468  0.58564690  0.25965686    -0.13200
Br603      Br  0.19207999  0.52779114  0.25857918    -0.05300
Br604      Br  0.28745531  0.94125669  0.23058577     0.00300
Br605      Br  0.32653451  0.56348277  0.32785685     0.00800
Br606      Br  0.30560756  0.58337388  0.22006152    -0.03600
Br607      Br  0.15556598  0.95111726  0.22126024     0.00900
Br608      Br  0.32604495  0.01812532  0.26718283    -0.02900
Br609      Br  0.23724400  0.01794870  0.32296013    -0.03800
Br610      Br  0.37690399  0.62251161  0.26253552     0.00200
C611        C  0.05486800  0.77563055  0.22703226     0.01600
C612        C  0.03293955  0.73705509  0.22652003     0.04400
C613        C  0.99910683  0.71999439  0.24045551    -0.11600
C614        C  0.48705467  0.74137161  0.25537960     0.23700
C615        C  0.00948722  0.78003436  0.25625619    -0.12200
C616        C  0.04291300  0.79709825  0.24171566     0.05200
C617        C  0.45084977  0.72343365  0.27006581     0.27600
C618        C  0.41856553  0.71435741  0.25616680    -0.12900
C619        C  0.38408501  0.69724369  0.27003205     0.05700
C620        C  0.38047347  0.69011955  0.30011416    -0.08800
C621        C  0.41654875  0.70824836  0.31321357     0.06500
C622        C  0.44945989  0.71883051  0.29833509    -0.13200
Br623      Br  0.49435495  0.80978279  0.27731122    -0.05300
Br624      Br  0.04950138  0.70763766  0.20653644     0.00300
Br625      Br  0.34457457  0.68478509  0.24379704     0.00800
Br626      Br  0.49489905  0.72959469  0.31667401    -0.03600
Br627      Br  0.07142554  0.85001147  0.24040820     0.00900
Br628      Br  0.46925088  0.66737390  0.23882591    -0.02900
Br629      Br  0.42285758  0.72443677  0.21688791    -0.03800
Br630      Br  0.42967894  0.73080131  0.34853870     0.00200
C631        C  0.11822446  0.55341416  0.43575859     0.01600
C632        C  0.13319757  0.53067585  0.42819796     0.04400
C633        C  0.16568594  0.54476369  0.41231644    -0.11600
C634        C  0.18283969  0.58139608  0.40284065     0.23700
C635        C  0.16675692  0.60355780  0.40955824    -0.12200
C636        C  0.13493760  0.58972636  0.42601479     0.05200
C637        C  0.22007544  0.59888070  0.38939799     0.27600
C638        C  0.25034948  0.62255366  0.40521123    -0.12900
C639        C  0.28301524  0.64906454  0.39259198     0.05700
C640        C  0.29045283  0.64744745  0.36337146    -0.08800
C641        C  0.25681280  0.62751462  0.34809431     0.06500
C642        C  0.22475714  0.59889629  0.36065370    -0.13200
Br643      Br  0.18914376  0.65382824  0.39735858    -0.05300
Br644      Br  0.10962756  0.48036057  0.44028990     0.00300
Br645      Br  0.29796044  0.69417679  0.41284394     0.00800
Br646      Br  0.18379525  0.56532798  0.33828920    -0.03600
Br647      Br  0.11393477  0.62057197  0.43537915     0.00900
Br648      Br  0.18778302  0.51450084  0.40503545    -0.02900
Br649      Br  0.24645819  0.61920531  0.44498768    -0.03800
Br650      Br  0.23436362  0.65534785  0.33487531     0.00200
C651        C  0.35374541  0.70232058  0.36822599     0.01600
C652        C  0.34865969  0.73372502  0.36296935     0.04400
C653        C  0.37138983  0.76889851  0.37498379    -0.11600
C654        C  0.39579822  0.77343688  0.39602107     0.23700
C655        C  0.39767517  0.74270799  0.40498775    -0.12200
C656        C  0.37444549  0.70731713  0.39362836     0.05200
C657        C  0.41365386  0.80858033  0.41241819     0.27600
C658        C  0.44741747  0.83831022  0.40424850    -0.12900
C659        C  0.46419695  0.87092485  0.42029334     0.05700
C660        C  0.44600277  0.87516986  0.44350625    -0.08800
C661        C  0.41136892  0.84608499  0.45072064     0.06500
C662        C  0.39600578  0.81263306  0.43598604    -0.13200
Br663      Br  0.43231446  0.74956837  0.43376053    -0.05300
Br664      Br  0.30335431  0.72986157  0.35115565     0.00300
Br665      Br  0.51293178  0.90880718  0.41117908     0.00800
Br666      Br  0.35033154  0.77268072  0.44834992    -0.03600
Br667      Br  0.36280707  0.67012424  0.42121115     0.00900
Br668      Br  0.36715549  0.81152132  0.36446531    -0.02900
Br669      Br  0.46996754  0.83460972  0.37059725    -0.03800
Br670      Br  0.38313370  0.85293027  0.47930352     0.00200
C671        C  0.34921762  0.63713161  0.36323206     0.01600
C672        C  0.33001518  0.60541630  0.38124236     0.04400
C673        C  0.34918343  0.59238820  0.39799206    -0.11600
C674        C  0.38745257  0.60919051  0.39740519     0.23700
C675        C  0.40647990  0.63951635  0.38022958    -0.12200
C676        C  0.38727693  0.64719705  0.35993925     0.05200
C677        C  0.40706082  0.59201293  0.41182948     0.27600
C678        C  0.43051708  0.60990104  0.43428014    -0.12900
C679        C  0.45008243  0.59432377  0.44664739     0.05700
C680        C  0.44322224  0.55869476  0.43915156    -0.08800
C681        C  0.41928304  0.54033066  0.41715647     0.06500
C682        C  0.40255161  0.55750429  0.40285399    -0.13200
Br683      Br  0.45947577  0.66424163  0.37891250    -0.05300
Br684      Br  0.27872937  0.57142007  0.38041681     0.00300
Br685      Br  0.48894695  0.62342062  0.47194519     0.00800
Br686      Br  0.37337026  0.53304386  0.37099180    -0.03600
Br687      Br  0.40451656  0.63491425  0.32683544     0.00900
Br688      Br  0.32359355  0.55314625  0.42432477    -0.02900
Br689      Br  0.43494276  0.65499743  0.44909468    -0.03800
Br690      Br  0.40746523  0.98957672  0.40748734     0.00200
C691        C  0.38483502  0.93651441  0.56710338     0.01600
C692        C  0.37690895  0.96027082  0.58340624     0.04400
C693        C  0.34309925  0.94659696  0.59749396    -0.11600
C694        C  0.31693075  0.90894198  0.59593702     0.23700
C695        C  0.32583464  0.88496943  0.58114162    -0.12200
C696        C  0.35987697  0.89837073  0.56768218     0.05200
C697        C  0.27969511  0.89385248  0.60915824     0.27600
C698        C  0.27379044  0.88137371  0.63618681    -0.12900
C699        C  0.23873725  0.85235408  0.64424479     0.05700
C700        C  0.20522794  0.84496434  0.63032205    -0.08800
C701        C  0.21325726  0.86163136  0.60259212     0.06500
C702        C  0.24940960  0.88534101  0.59291287    -0.13200
Br703      Br  0.29052639  0.83350020  0.57792131    -0.05300
Br704      Br  0.41177807  0.51223714  0.58767379     0.00300
Br705      Br  0.25060543  0.81392629  0.64959838     0.00800
Br706      Br  0.25919965  0.90916000  0.55722700    -0.03600
Br707      Br  0.37168235  0.86360732  0.55046524     0.00900
Br708      Br  0.33205170  0.97954400  0.61836072    -0.02900
Br709      Br  0.31707951  0.89714358  0.65885255    -0.03800
Br710      Br  0.17876355  0.85056562  0.57330921     0.00200
C711        C  0.13702939  0.78616454  0.63090643     0.01600
C712        C  0.09824631  0.76503341  0.63824065     0.04400
C713        C  0.07651619  0.72797091  0.62948385    -0.11600
C714        C  0.08905275  0.71310581  0.60917312     0.23700
C715        C  0.12256395  0.73526574  0.59661912    -0.12200
C716        C  0.14773092  0.76964769  0.60824310     0.05200
C717        C  0.06615803  0.67495556  0.59868917     0.27600
C718        C  0.07490493  0.64739427  0.60564015    -0.12900
C719        C  0.06240710  0.61566574  0.58907668     0.05700
C720        C  0.03859395  0.61005097  0.56693540    -0.08800
C721        C  0.02376210  0.63395144  0.56413981     0.06500
C722        C  0.03949581  0.66759324  0.57850722    -0.13200
Br723      Br  0.13321264  0.71715039  0.56255240    -0.05300
Br724      Br  0.06757297  0.78551968  0.65149649     0.00300
Br725      Br  0.07607453  0.57888343  0.59784535     0.00800
Br726      Br  0.02648756  0.70460410  0.56900583    -0.03600
Br727      Br  0.19629081  0.78374296  0.59418934     0.00900
Br728      Br  0.02727425  0.69747654  0.64316642    -0.02900
Br729      Br  0.10367739  0.65294419  0.63781764    -0.03800
Br730      Br  0.98113691  0.62097933  0.54208534     0.00200
C731        C  0.07586792  0.95699616  0.56477275     0.01600
C732        C  0.10591918  0.95456757  0.55403681     0.04400
C733        C  0.12187726  0.93755955  0.56938654    -0.11600
C734        C  0.10968743  0.92529923  0.59641316     0.23700
C735        C  0.08179652  0.93087705  0.60801583    -0.12200
C736        C  0.06444743  0.94595248  0.59202854     0.05200
C737        C  0.12254483  0.90197670  0.61061520     0.27600
C738        C  0.10146644  0.86403386  0.60825684    -0.12900
C739        C  0.11706525  0.84143559  0.61321700     0.05700
C740        C  0.14924288  0.85351255  0.63129217    -0.08800
C741        C  0.17128973  0.89395335  0.63207893     0.06500
C742        C  0.15778759  0.91697016  0.62159455    -0.13200
Br743      Br  0.06567145  0.91558564  0.64516484    -0.05300
Br744      Br  0.12427619  0.97304795  0.51780306     0.00300
Br745      Br  0.09568931  0.80038462  0.58643187     0.00800
Br746      Br  0.18702581  0.97019018  0.62222869    -0.03600
Br747      Br  0.02490065  0.95160089  0.60735700     0.00900
Br748      Br  0.15834087  0.92822657  0.55240002    -0.02900
Br749      Br  0.05143306  0.84306524  0.59482584    -0.03800
Br750      Br  0.22186847  0.92225983  0.64434067     0.00200
C751        C  0.37977714  0.77712446  0.89700212     0.01600
C752        C  0.37236162  0.77681050  0.92539454     0.04400
C753        C  0.38624866  0.81019045  0.94054284    -0.11600
C754        C  0.40694846  0.84439905  0.92732630     0.23700
C755        C  0.41360106  0.84449491  0.89874895    -0.12200
C756        C  0.40061851  0.81116064  0.88383925     0.05200
C757        C  0.42698510  0.87936718  0.94409478     0.27600
C758        C  0.41050075  0.89987394  0.95300208    -0.12900
C759        C  0.43068235  0.93356711  0.96805248     0.05700
C760        C  0.47019984  0.94988443  0.97294849    -0.08800
C761        C  0.48230272  0.92271022  0.96902657     0.06500
C762        C  0.46209676  0.88992646  0.95334367    -0.13200
Br763      Br  0.44151529  0.89022951  0.87984499    -0.05300
Br764      Br  0.34488202  0.73041824  0.94377881     0.00300
Br765      Br  0.40021909  0.95353370  0.98188072     0.00800
Br766      Br  0.98238805  0.85785212  0.94401568    -0.03600
Br767      Br  0.41193740  0.81201157  0.84520143     0.00900
Br768      Br  0.37875526  0.80915625  0.97977890    -0.02900
Br769      Br  0.35964055  0.88124877  0.94361922    -0.03800
Br770      Br  0.02164140  0.92130332  0.98796543     0.00200
C771        C  0.20733792  0.58944037  0.88803106     0.01600
C772        C  0.20739719  0.59392938  0.91671436     0.04400
C773        C  0.17446680  0.57581117  0.93150413    -0.11600
C774        C  0.14169870  0.55148937  0.91783083     0.23700
C775        C  0.14212788  0.54627830  0.88904194    -0.12200
C776        C  0.17453730  0.56666511  0.87411620     0.05200
C777        C  0.10587329  0.53753681  0.93198976     0.27600
C778        C  0.09040696  0.50510416  0.94710814    -0.12900
C779        C  0.05266003  0.48754947  0.95255754     0.05700
C780        C  0.03418651  0.50845166  0.95724631    -0.08800
C781        C  0.04831558  0.53884930  0.93722077     0.06500
C782        C  0.08434755  0.55365717  0.92609467    -0.13200
Br783      Br  0.09760657  0.51418258  0.86945387    -0.05300
Br784      Br  0.25245684  0.62645664  0.93544013     0.00300
Br785      Br  0.03304699  0.95271892  0.92079183     0.00800
Br786      Br  0.10732124  0.59912060  0.90468842    -0.03600
Br787      Br  0.17302438  0.56788324  0.83451546     0.00900
Br788      Br  0.17421337  0.58733830  0.96980552    -0.02900
Br789      Br  0.11696420  0.47865964  0.95201147    -0.03800
Br790      Br  0.02623979  0.56601864  0.92253623     0.00200
C791        C  0.47490314  0.51230978  0.96460515     0.01600
C792        C  0.46706941  0.53911863  0.97741018     0.04400
C793        C  0.43733862  0.54364206  0.96852404    -0.10700
C794        C  0.42692900  0.53729059  0.94088329     0.23700
C795        C  0.43668508  0.51494699  0.92545320    -0.12200
C796        C  0.45835460  0.50087098  0.93722219     0.05200
C797        C  0.41082599  0.55826014  0.92688734     0.27600
C798        C  0.37273782  0.54348235  0.92451876    -0.12900
C799        C  0.35807131  0.56208195  0.90923969     0.05700
C800        C  0.38148883  0.59482246  0.89460590    -0.08800
C801        C  0.41966245  0.60931415  0.89712685     0.06500
C802        C  0.43393932  0.59221344  0.91409330    -0.13200
Br803      Br  0.42073918  0.50487505  0.88745487    -0.05300
Br804      Br  0.50464372  0.58947848  0.98065400     0.00300
Br805      Br  0.30568402  0.54246916  0.90966843     0.00800
Br806      Br  0.48576168  0.61692625  0.91975637    -0.03600
Br807      Br  0.46754530  0.97282040  0.91236844     0.00900
Br808      Br  0.41882104  0.56933316  0.99115733    -0.02900
Br809      Br  0.34084143  0.49755280  0.94234424    -0.03800
Br810      Br  0.45357490  0.65080312  0.87558218     0.00200
C811        C  0.17789221  0.79862680  0.69775377     0.01600
C812        C  0.18822161  0.77219612  0.68703829     0.04400
C813        C  0.20951883  0.76089129  0.70285742    -0.11600
C814        C  0.21993321  0.77378952  0.72968507     0.23700
C815        C  0.20759098  0.79628490  0.74139559    -0.12200
C816        C  0.18040525  0.80028631  0.72773266     0.05200
C817        C  0.23718136  0.75744818  0.74703079     0.27600
C818        C  0.21513599  0.72248835  0.75878292    -0.12900
C819        C  0.23141433  0.70512224  0.77307289     0.05700
C820        C  0.26965980  0.72266006  0.77579643    -0.08800
C821        C  0.29165464  0.75775861  0.76453297     0.06500
C822        C  0.27544722  0.77490354  0.74975906    -0.13200
Br823      Br  0.22090400  0.81433975  0.77866938    -0.05300
Br824      Br  0.17064860  0.74223405  0.65480020     0.00300
Br825      Br  0.20146702  0.65658694  0.78804528     0.00800
Br826      Br  0.30554336  0.82141964  0.73221891    -0.03600
Br827      Br  0.13871014  0.76999144  0.75091545     0.00900
Br828      Br  0.22545729  0.72709251  0.68840990    -0.02900
Br829      Br  0.16271600  0.69730226  0.75407586    -0.03800
Br830      Br  0.34380751  0.78270854  0.77017459     0.00200
C831        C  0.12164516  0.80373889  0.69902171     0.01600
C832        C  0.09415908  0.76446764  0.69999327     0.04400
C833        C  0.05956711  0.75165805  0.71342068    -0.11600
C834        C  0.05116535  0.77600467  0.72749433     0.23700
C835        C  0.07892202  0.81211394  0.73115140    -0.12200
C836        C  0.11465311  0.82283015  0.72175601     0.05200
C837        C  0.01644826  0.76139030  0.74393475     0.27600
C838        C  0.48355945  0.75530941  0.73171882    -0.12900
C839        C  0.45026392  0.73811188  0.74663204     0.05700
C840        C  0.44919598  0.72540736  0.77398078    -0.08800
C841        C  0.48274378  0.73197391  0.78599890     0.06500
C842        C  0.01592700  0.75050159  0.77134108    -0.13200
Br843      Br  0.06923973  0.84556880  0.75291503    -0.05300
Br844      Br  0.10236495  0.72413664  0.69107456     0.00300
Br845      Br  0.40702693  0.73361669  0.72890975     0.00800
Br846      Br  0.06106144  0.76012477  0.78880118    -0.03600
Br847      Br  0.15066182  0.85380624  0.74911228     0.00900
Br848      Br  0.02360859  0.69962952  0.71549200    -0.02900
Br849      Br  0.48453959  0.77059248  0.69423540    -0.03800
Br850      Br  0.48463394  0.71370910  0.82189018     0.00200
C851        C  0.18258985  0.86521841  0.69234056     0.01600
C852        C  0.16522603  0.88856579  0.69171055     0.04400
C853        C  0.18324805  0.92537896  0.70206305    -0.11600
C854        C  0.21607051  0.93929302  0.71668881     0.23700
C855        C  0.23272107  0.91744992  0.71906961    -0.12200
C856        C  0.21837688  0.88278614  0.70549309     0.05200
C857        C  0.23242945  0.97614272  0.73115310     0.27600
C858        C  0.26494898  0.50611895  0.72150924    -0.12900
C859        C  0.28240097  0.53955384  0.73678981     0.05700
C860        C  0.26759489  0.54304114  0.76219039    -0.08800
C861        C  0.23409831  0.51309234  0.77113298     0.06500
C862        C  0.21705819  0.97985300  0.75604165    -0.13200
Br863      Br  0.27528757  0.93535089  0.74292596    -0.05300
Br864      Br  0.11528606  0.87307534  0.67966688     0.00300
Br865      Br  0.32774994  0.57952363  0.72347347     0.00800
Br866      Br  0.17075847  0.94065345  0.76857582    -0.03600
Br867      Br  0.25230612  0.86440780  0.70620326     0.00900
Br868      Br  0.16317874  0.95803219  0.69647032    -0.02900
Br869      Br  0.28630736  0.50148992  0.68747587    -0.03800
Br870      Br  0.21086704  0.51682412  0.80447139     0.00200
O871        O  0.88375266  0.22826919  0.87264833    -0.78200
C872        C  0.86535188  0.11257293  0.87767947     0.82800
O873        O  0.88344478  0.18912250  0.77752477    -0.79300
O874        O  0.78929659  0.07098664  0.80686875    -0.80800
O875        O  0.75404998  0.14218781  0.86956203    -0.80600
O876        O  0.82947567  0.22553807  0.87427267    -0.79200
Zn877      Zn  0.87631882  0.18399246  0.84860272     1.55700
O878        O  0.75474217  0.08957604  0.86187887    -0.80600
Cd879      Cd  0.79884228  0.18076520  0.84832793     1.59700
Cd880      Cd  0.82890892  0.16086455  0.79067116     1.59600
O881        O  0.77967732  0.19988084  0.81721111    -0.80600
O882        O  0.82769235  0.15829124  0.83218355    -1.91100
Cd883      Cd  0.80291403  0.10470697  0.84117852     1.59900
O884        O  0.80292445  0.19010814  0.77847996    -0.80600
O885        O  0.83455935  0.09238548  0.86632683    -0.79200
C886        C  0.91356037  0.20583901  0.79073707     0.83300
C887        C  0.86314087  0.24106187  0.88088331     0.83000
O888        O  0.88344261  0.14720520  0.87291427    -0.78200
C889        C  0.74014250  0.10753442  0.87208325     0.83800
O890        O  0.91376836  0.20548713  0.81709695    -0.78300
C891        C  0.78437262  0.20239541  0.79126835     0.83900
C892        C  0.78780382  0.07586827  0.78121428     0.84200
O893        O  0.80110968  0.10830051  0.77142323    -0.80700
C894        C  0.66052105  0.32201859  0.68166322    -0.02200
C895        C  0.49780704  0.99459308  0.97844781    -0.02200
O896        O  0.92500351  0.48274057  0.53515139    -0.78200
C897        C  0.52954403  0.07905025  0.54700466     0.82800
O898        O  0.97602629  0.02385167  0.44389453    -0.79300
O899        O  0.58997644  0.04888802  0.47986438    -0.80800
O900        O  0.52071051  0.44599061  0.54080912    -0.80600
O901        O  0.93566049  0.43694176  0.54454943    -0.79200
Zn902      Zn  0.96979148  0.01736687  0.51358310     1.55700
O903        O  0.56950714  0.50210908  0.53804192    -0.80600
Cd904      Cd  0.98012331  0.44845993  0.51784492     1.59700
Cd905      Cd  0.00070334  0.49584427  0.45974403     1.59600
O906        O  0.96314164  0.40921539  0.48591881    -0.80600
O907        O  0.00068259  0.49850631  0.50109286    -1.91100
Cd908      Cd  0.55328900  0.03086750  0.51348308     1.59900
O909        O  0.97347299  0.44101361  0.44697532    -0.80600
O910        O  0.55518861  0.07371130  0.53765068    -0.79200
C911        C  0.95887015  0.03849570  0.45572178     0.83300
C912        C  0.91657100  0.45306899  0.54783888     0.83000
O913        O  0.49657414  0.05888734  0.53969100    -0.78200
C914        C  0.55382286  0.46914165  0.54678978     0.83800
O915        O  0.95440282  0.03723903  0.48171572    -0.78300
C916        C  0.96175522  0.41058929  0.45965369     0.83900
C917        C  0.58606926  0.03928996  0.45446301     0.84200
O918        O  0.55461335  0.01821061  0.44412257    -0.80700
C919        C  0.83333083  0.16302174  0.35187460    -0.02200
C920        C  0.66229017  0.32605061  0.64407530    -0.02200
O921        O  0.74365722  0.40206420  0.13074885    -0.78200
C922        C  0.62905620  0.37519898  0.11956931     0.82800
O923        O  0.69696541  0.38818776  0.22260939    -0.79300
O924        O  0.58526618  0.29342478  0.18472476    -0.80800
O925        O  0.66610320  0.26893382  0.12360316    -0.80600
O926        O  0.74748147  0.35061928  0.12772798    -0.79200
Zn927      Zn  0.69683678  0.38806728  0.15241261     1.55700
O928        O  0.61136647  0.26246916  0.13262710    -0.80600
Cd929      Cd  0.70069636  0.31271643  0.14929043     1.59700
Cd930      Cd  0.67350834  0.33521150  0.20652155     1.59600
O931        O  0.71732539  0.29080078  0.18108797    -0.80600
O932        O  0.67392797  0.33741011  0.16522799    -1.91100
Cd933      Cd  0.62194765  0.31013191  0.15262397     1.59900
O934        O  0.70347671  0.31027777  0.21978212    -0.80600
O935        O  0.60984106  0.34179203  0.12678560    -0.79200
C936        C  0.70905319  0.41944377  0.21121655     0.83300
C937        C  0.76007968  0.38474801  0.12262420     0.83000
O938        O  0.66200467  0.39498028  0.12763998    -0.78200
C939        C  0.63126025  0.25096120  0.12135462     0.83800
O940        O  0.70971902  0.42302253  0.18514152    -0.78300
C941        C  0.71780275  0.29328054  0.20732579     0.83900
C942        C  0.58875477  0.29277420  0.21064200     0.84200
O943        O  0.62005186  0.30646716  0.22218374    -0.80700
C944        C  0.50696276  0.00270827  0.01492377    -0.02200
C945        C  0.83962358  0.16619905  0.31524066    -0.02200
C946        C  0.96542542  0.48556884  0.02892650     0.01600
C947        C  0.95151440  0.50835787  0.04173318     0.04400
C948        C  0.91867848  0.49344286  0.05760607    -0.11600
C949        C  0.89569743  0.45570990  0.05957269     0.23700
C950        C  0.90519865  0.43225684  0.04563545    -0.12200
C951        C  0.93986261  0.44579079  0.03242764     0.05200
C952        C  0.86106593  0.44027040  0.07638647     0.27600
C953        C  0.86163529  0.43472339  0.10502138    -0.12900
C954        C  0.82872895  0.41788398  0.12026659     0.05700
C955        C  0.79482570  0.40491290  0.10691317    -0.08800
C956        C  0.79428533  0.41188676  0.07864134     0.06500
C957        C  0.82727745  0.43040425  0.06365415    -0.13200
Br958      Br  0.86885586  0.38021341  0.04516280    -0.05300
Br959      Br  0.97465572  0.06190756  0.04084706     0.00300
Br960      Br  0.82996522  0.41401937  0.15973661     0.00800
Br961      Br  0.82640915  0.44331627  0.02584284    -0.03600
Br962      Br  0.94900765  0.40499494  0.02562114     0.00900
Br963      Br  0.90486982  0.02635943  0.07811591    -0.02900
Br964      Br  0.90740885  0.45076755  0.12367268    -0.03800
Br965      Br  0.74815691  0.39546036  0.06035966     0.00200
C966        C  0.53458337  0.04439425  0.02807672     0.01600
C967        C  0.55786998  0.08038278  0.01587365     0.04400
C968        C  0.56979161  0.11377261  0.03135731    -0.11600
C969        C  0.56231504  0.11292561  0.05949622     0.23700
C970        C  0.54434864  0.07883819  0.07230256    -0.12200
C971        C  0.53912085  0.04745581  0.05766954     0.05200
C972        C  0.57898022  0.14762037  0.07618440     0.27600
C973        C  0.61269800  0.15927401  0.08961979    -0.12900
C974        C  0.62899045  0.19212373  0.10513377     0.05700
C975        C  0.61324433  0.21541809  0.10569804    -0.08800
C976        C  0.57940502  0.20373326  0.09190152     0.06500
C977        C  0.56233409  0.16984041  0.07761263    -0.13200
Br978      Br  0.53415258  0.07554053  0.11122082    -0.05300
Br979      Br  0.58372235  0.09113357  0.98188054     0.00300
Br980      Br  0.67131906  0.20276898  0.12734111     0.00800
Br981      Br  0.51636909  0.15432005  0.05925006    -0.03600
Br982      Br  0.07618774  0.03908086  0.07369673     0.00900
Br983      Br  0.59672431  0.16210231  0.01453351    -0.02900
Br984      Br  0.63776198  0.13106669  0.08603481    -0.03800
Br985      Br  0.55580675  0.23368967  0.09141173     0.00200
C986        C  0.52592740  0.48083234  0.02985845     0.01600
C987        C  0.56274832  0.48788492  0.02379845     0.04400
C988        C  0.57834703  0.46779853  0.03610455    -0.11600
C989        C  0.55967858  0.44207395  0.05657759     0.23700
C990        C  0.52670382  0.43841032  0.06621273    -0.12200
C991        C  0.51299695  0.46099805  0.05589633     0.05200
C992        C  0.57825053  0.42486880  0.07202508     0.27600
C993        C  0.57673673  0.39198639  0.06265666    -0.12900
C994        C  0.59345971  0.37560810  0.07798242     0.05700
C995        C  0.61211331  0.39223732  0.10267092    -0.08800
C996        C  0.61371561  0.42512026  0.11193149     0.06500
C997        C  0.59731315  0.44150369  0.09658250    -0.13200
Br998      Br  0.50250647  0.40479339  0.09628723    -0.05300
Br999      Br  0.59885167  0.53154774  0.00752767     0.00300
Br1000     Br  0.59145807  0.33087417  0.06472724     0.00800
Br1001     Br  0.60125186  0.48690765  0.10977506    -0.03600
Br1002     Br  0.98610934  0.47113598  0.08439954     0.00900
Br1003     Br  0.62699263  0.47659936  0.02644749    -0.02900
Br1004     Br  0.55207211  0.36950670  0.02874846    -0.03800
Br1005     Br  0.63603967  0.44664418  0.14692149     0.00200
C1006       C  0.81863540  0.18667169  0.30144715     0.01600
C1007       C  0.78439244  0.16761187  0.28600264     0.04400
C1008       C  0.77029436  0.18654288  0.27018643    -0.11600
C1009       C  0.78682849  0.22474858  0.27056945     0.23700
C1010       C  0.81918310  0.24473710  0.28517212    -0.12200
C1011       C  0.83673046  0.22699258  0.29810592     0.05200
C1012       C  0.77029700  0.24393978  0.25485486     0.27600
C1013       C  0.78402022  0.25912603  0.22878162    -0.12900
C1014       C  0.76759407  0.27596018  0.21360721     0.05700
C1015       C  0.73587928  0.27623774  0.22373691    -0.08800
C1016       C  0.72200136  0.26049685  0.24986545     0.06500
C1017       C  0.74001018  0.24585348  0.26563657    -0.13200
Br1018     Br  0.83892392  0.29774357  0.28721333    -0.05300
Br1019     Br  0.75250756  0.11574693  0.28382211     0.00300
Br1020     Br  0.79041589  0.30015431  0.17956380     0.00800
Br1021     Br  0.72376947  0.22902375  0.30254218    -0.03600
Br1022     Br  0.88656007  0.26290185  0.30815002     0.00900
Br1023     Br  0.72790103  0.16055959  0.24624449    -0.02900
Br1024     Br  0.82574394  0.25707222  0.21387116    -0.03800
Br1025     Br  0.67670819  0.25594283  0.26378200     0.00200
C1026       C  0.72451110  0.45277465  0.22875814     0.01600
C1027       C  0.76004952  0.46677304  0.23920377     0.04400
C1028       C  0.77612782  0.49965921  0.25463242    -0.11600
C1029       C  0.75732931  0.01895950  0.25980818     0.23700
C1030       C  0.72026280  0.50374990  0.25048155    -0.12200
C1031       C  0.70440767  0.47092581  0.23474343     0.05200
C1032       C  0.77657160  0.05571851  0.27397778     0.27600
C1033       C  0.77418938  0.05915984  0.30266195    -0.12900
C1034       C  0.80269868  0.08987850  0.31666281     0.05700
C1035       C  0.82483474  0.12400992  0.30242790    -0.08800
C1036       C  0.83078897  0.11647189  0.27440114     0.06500
C1037       C  0.80380079  0.08584329  0.25979037    -0.13200
Br1038     Br  0.69299276  0.02820815  0.25859309    -0.05300
Br1039     Br  0.78715480  0.44120594  0.23145770     0.00300
Br1040     Br  0.82749779  0.06341042  0.32787128     0.00800
Br1041     Br  0.80612883  0.08407745  0.22017317    -0.03600
Br1042     Br  0.65503232  0.45049866  0.22143071     0.00900
Br1043     Br  0.82548097  0.51835677  0.26762227    -0.02900
Br1044     Br  0.73633273  0.51844080  0.32304181    -0.03800
Br1045     Br  0.87744371  0.12239807  0.26287333     0.00200
C1046       C  0.55506539  0.27499151  0.22746032     0.01600
C1047       C  0.53331515  0.23639902  0.22713030     0.04400
C1048       C  0.49961826  0.21932740  0.24123719    -0.11600
C1049       C  0.98757153  0.24073971  0.25610594     0.23700
C1050       C  0.50991175  0.27940963  0.25688637    -0.12200
C1051       C  0.54314126  0.29646876  0.24214042     0.05200
C1052       C  0.95135923  0.22289025  0.27072690     0.27600
C1053       C  0.91916170  0.21392250  0.25674224    -0.12900
C1054       C  0.88466705  0.19717762  0.27057601     0.05700
C1055       C  0.88096427  0.19005385  0.30064566    -0.08800
C1056       C  0.91699420  0.20816543  0.31380985     0.06500
C1057       C  0.94991689  0.21854370  0.29901677    -0.13200
Br1058     Br  0.99505365  0.30918280  0.27817646    -0.05300
Br1059     Br  0.54990897  0.20699828  0.20715330     0.00300
Br1060     Br  0.84528709  0.18527582  0.24433731     0.00800
Br1061     Br  0.99528486  0.22929135  0.31748199    -0.03600
Br1062     Br  0.57136445  0.34938326  0.24047673     0.00900
Br1063     Br  0.97003640  0.16665898  0.23998141    -0.02900
Br1064     Br  0.92357081  0.22352667  0.21738694    -0.03800
Br1065     Br  0.93010629  0.23088302  0.34907553     0.00200
C1066       C  0.61900988  0.05320056  0.43632888     0.01600
C1067       C  0.63368134  0.03027736  0.42852626     0.04400
C1068       C  0.66605348  0.04422647  0.41252633    -0.11600
C1069       C  0.68354395  0.08099971  0.40337080     0.23700
C1070       C  0.66785678  0.10341768  0.41041183    -0.12200
C1071       C  0.63604987  0.08966154  0.42686920     0.05200
C1072       C  0.72072161  0.09829626  0.38988977     0.27600
C1073       C  0.75106788  0.12177804  0.40570429    -0.12900
C1074       C  0.78364483  0.14842936  0.39310619     0.05700
C1075       C  0.79098156  0.14703429  0.36384037    -0.08800
C1076       C  0.75731351  0.12705193  0.34857277     0.06500
C1077       C  0.72529059  0.09841504  0.36113694    -0.13200
Br1078     Br  0.69072075  0.15387820  0.39857119    -0.05300
Br1079     Br  0.60998164  0.97994895  0.44059005     0.00300
Br1080     Br  0.79854906  0.19337313  0.41362025     0.00800
Br1081     Br  0.68425522  0.06484736  0.33880309    -0.03600
Br1082     Br  0.61552754  0.12081884  0.43659964     0.00900
Br1083     Br  0.68746068  0.01351546  0.40449907    -0.02900
Br1084     Br  0.74740817  0.11795688  0.44546397    -0.03800
Br1085     Br  0.73456645  0.15460417  0.33533288     0.00200
C1086       C  0.85411765  0.20210700  0.36867514     0.01600
C1087       C  0.84863523  0.23330020  0.36349359     0.04400
C1088       C  0.87112412  0.26855332  0.37547889    -0.11600
C1089       C  0.89573233  0.27338775  0.39642819     0.23700
C1090       C  0.89788714  0.24281792  0.40544764    -0.12200
C1091       C  0.87496205  0.20733257  0.39404757     0.05200
C1092       C  0.91348685  0.30866853  0.41268983     0.27600
C1093       C  0.94688416  0.33866159  0.40419132    -0.12900
C1094       C  0.96355041  0.37142654  0.42008385     0.05700
C1095       C  0.94544206  0.37562649  0.44337486    -0.08800
C1096       C  0.91110425  0.34626763  0.45087661     0.06500
C1097       C  0.89599797  0.31263940  0.43638180    -0.13200
Br1098     Br  0.93237779  0.25005069  0.43444995    -0.05300
Br1099     Br  0.80310520  0.22899272  0.35184973     0.00300
Br1100     Br  0.01209363  0.40950295  0.41071618     0.00800
Br1101     Br  0.85087476  0.27231272  0.44922901    -0.03600
Br1102     Br  0.86408484  0.17009603  0.42143861     0.00900
Br1103     Br  0.86608302  0.31081952  0.36520801    -0.02900
Br1104     Br  0.96902724  0.33514022  0.37026854    -0.03800
Br1105     Br  0.88285622  0.35290702  0.47953139     0.00200
C1106       C  0.84979171  0.13686297  0.36362301     0.01600
C1107       C  0.83052128  0.10505272  0.38154100     0.04400
C1108       C  0.84960112  0.09197561  0.39833880    -0.11600
C1109       C  0.88785821  0.10860845  0.39774851     0.23700
C1110       C  0.90698138  0.13898537  0.38062140    -0.12200
C1111       C  0.88787875  0.14693631  0.36039101     0.05200
C1112       C  0.90732297  0.09118434  0.41209657     0.27600
C1113       C  0.93091849  0.10892236  0.43451506    -0.12900
C1114       C  0.95037403  0.09313861  0.44675967     0.05700
C1115       C  0.94326153  0.05744922  0.43922509    -0.08800
C1116       C  0.91920914  0.03922576  0.41726051     0.06500
C1117       C  0.90256251  0.05658815  0.40306491    -0.13200
Br1118     Br  0.95997963  0.16362801  0.37940502    -0.05300
Br1119     Br  0.77928590  0.07081508  0.38036528     0.00300
Br1120     Br  0.98950835  0.12202055  0.47192053     0.00800
Br1121     Br  0.87318656  0.03228548  0.37125114    -0.03600
Br1122     Br  0.90528094  0.13497586  0.32722154     0.00900
Br1123     Br  0.82387938  0.05289801  0.42476351    -0.02900
Br1124     Br  0.93569174  0.15408382  0.44948688    -0.03800
Br1125     Br  0.90767548  0.49067265  0.40755437     0.00200
C1126       C  0.88363993  0.43745636  0.56652255     0.01600
C1127       C  0.87548402  0.46116837  0.58270605     0.04400
C1128       C  0.84169978  0.44734225  0.59685525    -0.11600
C1129       C  0.81581204  0.40960763  0.59553244     0.23700
C1130       C  0.82491659  0.38569197  0.58089385    -0.12200
C1131       C  0.85885619  0.39925105  0.56725215     0.05200
C1132       C  0.77861086  0.39440595  0.60880209     0.27600
C1133       C  0.77270145  0.38143985  0.63568762    -0.12900
C1134       C  0.73760745  0.35234738  0.64357559     0.05700
C1135       C  0.70411341  0.34541352  0.62986121    -0.08800
C1136       C  0.71217774  0.36276367  0.60233607     0.06500
C1137       C  0.74836723  0.38638694  0.59267262    -0.13200
Br1138     Br  0.79006473  0.33401695  0.57829026    -0.05300
Br1139     Br  0.91359973  0.01115085  0.58859117     0.00300
Br1140     Br  0.74932076  0.31368114  0.64802196     0.00800
Br1141     Br  0.75832263  0.41067696  0.55715111    -0.03600
Br1142     Br  0.87065086  0.36455155  0.54993209     0.00900
Br1143     Br  0.83027927  0.48011380  0.61760071    -0.02900
Br1144     Br  0.81610190  0.39634682  0.65806290    -0.03800
Br1145     Br  0.67771871  0.35293576  0.57320898     0.00200
C1146       C  0.63601649  0.28625912  0.63031594     0.01600
C1147       C  0.59721093  0.26501223  0.63759906     0.04400
C1148       C  0.57544053  0.22806185  0.62853616    -0.11600
C1149       C  0.58824988  0.21315629  0.60844245     0.23700
C1150       C  0.62189067  0.23529059  0.59606456    -0.12200
C1151       C  0.64675949  0.26999095  0.60747849     0.05200
C1152       C  0.56557654  0.17488724  0.59805176     0.27600
C1153       C  0.57447931  0.14751182  0.60528868    -0.12900
C1154       C  0.56211989  0.11559077  0.58897284     0.05700
C1155       C  0.53821344  0.10952190  0.56681464    -0.08800
C1156       C  0.52327198  0.13327843  0.56369775     0.06500
C1157       C  0.53909020  0.16723229  0.57764583    -0.13200
Br1158     Br  0.63316164  0.21640554  0.56261322    -0.05300
Br1159     Br  0.56664103  0.28539561  0.65134967     0.00300
Br1160     Br  0.57619560  0.07920763  0.59809043     0.00800
Br1161     Br  0.52677562  0.20435268  0.56697681    -0.03600
Br1162     Br  0.69511710  0.28532930  0.59254978     0.00900
Br1163     Br  0.52588084  0.19766541  0.64165133    -0.02900
Br1164     Br  0.60377135  0.15376370  0.63726405    -0.03800
Br1165     Br  0.48026093  0.11961729  0.54192255     0.00200
C1166       C  0.57459982  0.45705985  0.56443900     0.01600
C1167       C  0.60468109  0.45470502  0.55368344     0.04400
C1168       C  0.62046756  0.43743295  0.56891644    -0.11600
C1169       C  0.60835390  0.42520242  0.59596650     0.23700
C1170       C  0.58048894  0.43076659  0.60760154    -0.12200
C1171       C  0.56302259  0.44572300  0.59162650     0.05200
C1172       C  0.62115416  0.40185511  0.61021082     0.27600
C1173       C  0.60014405  0.36392807  0.60776435    -0.12900
C1174       C  0.61570511  0.34134141  0.61297669     0.05700
C1175       C  0.64779536  0.35344101  0.63121956    -0.08800
C1176       C  0.66965424  0.39390543  0.63219716     0.06500
C1177       C  0.65619545  0.41687376  0.62153517    -0.13200
Br1178     Br  0.56462633  0.41560444  0.64480754    -0.05300
Br1179     Br  0.62328734  0.47362094  0.51756598     0.00300
Br1180     Br  0.59478116  0.30048581  0.58597305     0.00800
Br1181     Br  0.68535617  0.47009550  0.62212373    -0.03600
Br1182     Br  0.52301925  0.45065072  0.60685966     0.00900
Br1183     Br  0.65643489  0.42760325  0.55167601    -0.02900
Br1184     Br  0.55050092  0.34312683  0.59345883    -0.03800
Br1185     Br  0.72020348  0.42234450  0.64454060     0.00200
C1186       C  0.87900281  0.27597700  0.89722955     0.01600
C1187       C  0.87079924  0.27615644  0.92542083     0.04400
C1188       C  0.88587487  0.30966195  0.94050663    -0.11600
C1189       C  0.90823403  0.34355802  0.92732689     0.23700
C1190       C  0.91559689  0.34319423  0.89892118    -0.12200
C1191       C  0.90170576  0.30966750  0.88416339     0.05200
C1192       C  0.92821996  0.37866594  0.94395071     0.27600
C1193       C  0.91157105  0.39916960  0.95243933    -0.12900
C1194       C  0.93143425  0.43286592  0.96750016     0.05700
C1195       C  0.97092229  0.44941821  0.97264095    -0.08800
C1196       C  0.98338319  0.42251384  0.96888262     0.06500
C1197       C  0.96336266  0.38952412  0.95334787    -0.13200
Br1198     Br  0.94552242  0.38853994  0.88004205    -0.05300
Br1199     Br  0.84041696  0.23020001  0.94363903     0.00300
Br1200     Br  0.90053061  0.45246091  0.98100953     0.00800
Br1201     Br  0.48390950  0.35750238  0.94459916    -0.03600
Br1202     Br  0.91412502  0.30976852  0.84582862     0.00900
Br1203     Br  0.87757254  0.30909117  0.97960762    -0.02900
Br1204     Br  0.86096755  0.38069037  0.94223600    -0.03800
Br1205     Br  0.52287881  0.42173485  0.98818023     0.00200
C1206       C  0.70604640  0.08744873  0.88758355     0.01600
C1207       C  0.70602520  0.09246976  0.91618823     0.04400
C1208       C  0.67311501  0.07454198  0.93095198    -0.11600
C1209       C  0.64041547  0.04986766  0.91737911     0.23700
C1210       C  0.64087887  0.04406746  0.88867920    -0.12200
C1211       C  0.67337081  0.06401581  0.87372903     0.05200
C1212       C  0.60464069  0.03620812  0.93148732     0.27600
C1213       C  0.58858305  0.00337688  0.94611654    -0.12900
C1214       C  0.55095676  0.98661333  0.95182516     0.05700
C1215       C  0.53344025  0.00830457  0.95712957    -0.08800
C1216       C  0.54781353  0.03878515  0.93724701     0.06500
C1217       C  0.58369764  0.05308321  0.92596942    -0.13200
Br1218     Br  0.59629445  0.01188391  0.86920567    -0.05300
Br1219     Br  0.75102633  0.12527229  0.93489599     0.00300
Br1220     Br  0.53593028  0.45326158  0.92172941     0.00800
Br1221     Br  0.60707565  0.09852803  0.90463724    -0.03600
Br1222     Br  0.67216876  0.06338953  0.83406193     0.00900
Br1223     Br  0.67283155  0.08710097  0.96899358    -0.02900
Br1224     Br  0.61398374  0.97561707  0.95005703    -0.03800
Br1225     Br  0.52574018  0.06584637  0.92241920     0.00200
C1226       C  0.97480970  0.01334036  0.96531846     0.01600
C1227       C  0.96811450  0.04085226  0.97828989     0.04400
C1228       C  0.93835529  0.04584427  0.97021973    -0.10700
C1229       C  0.92595256  0.03810823  0.94309006     0.23700
C1230       C  0.93437036  0.01490711  0.92751022    -0.12200
C1231       C  0.95719265  0.00167402  0.93834012     0.05200
C1232       C  0.90991072  0.05915820  0.92926978     0.27600
C1233       C  0.87190116  0.04578483  0.92858064    -0.12900
C1234       C  0.85729169  0.06434272  0.91318821     0.05700
C1235       C  0.88043301  0.09478665  0.89636900    -0.08800
C1236       C  0.91832230  0.10740023  0.89689863     0.06500
C1237       C  0.93292363  0.09151861  0.91463799    -0.13200
Br1238     Br  0.91376000  0.00138693  0.89086678    -0.05300
Br1239     Br  0.00642774  0.09101459  0.98083766     0.00300
Br1240     Br  0.80571231  0.04821973  0.91627341     0.00800
Br1241     Br  0.98490826  0.11619975  0.91920894    -0.03600
Br1242     Br  0.96921613  0.47169751  0.91190604     0.00900
Br1243     Br  0.92241159  0.07395709  0.99275279    -0.02900
Br1244     Br  0.84012283  0.00198178  0.94879109    -0.03800
Br1245     Br  0.95078394  0.14343533  0.87103983     0.00200
C1246       C  0.67724145  0.29794755  0.69703842     0.01600
C1247       C  0.68763081  0.27170314  0.68599746     0.04400
C1248       C  0.70895110  0.26011525  0.70156980    -0.11600
C1249       C  0.71909979  0.27226222  0.72859162     0.23700
C1250       C  0.70700618  0.29487332  0.74049041    -0.12200
C1251       C  0.67985342  0.29915587  0.72700232     0.05200
C1252       C  0.73591942  0.25527532  0.74586743     0.27600
C1253       C  0.71369665  0.21981973  0.75686015    -0.12900
C1254       C  0.72964684  0.20239207  0.77158258     0.05700
C1255       C  0.76772534  0.22042792  0.77560653    -0.08800
C1256       C  0.78978785  0.25605891  0.76525750     0.06500
C1257       C  0.77399912  0.27318949  0.74994528    -0.13200
Br1258     Br  0.72038668  0.31251352  0.77784254    -0.05300
Br1259     Br  0.66996931  0.24224532  0.65356155     0.00300
Br1260     Br  0.69952584  0.15335605  0.78564196     0.00800
Br1261     Br  0.80452638  0.32052718  0.73371305    -0.03600
Br1262     Br  0.63824737  0.26811641  0.74995745     0.00900
Br1263     Br  0.72550768  0.22717513  0.68642592    -0.02900
Br1264     Br  0.66149033  0.19436201  0.75092367    -0.03800
Br1265     Br  0.84143826  0.28182243  0.77311259     0.00200
C1266       C  0.62103011  0.30325465  0.69894416     0.01600
C1267       C  0.59333122  0.26406889  0.69955461     0.04400
C1268       C  0.55879809  0.25122443  0.71311695    -0.11600
C1269       C  0.55081374  0.27535597  0.72796594     0.23700
C1270       C  0.57891567  0.31120719  0.73209920    -0.12200
C1271       C  0.61448239  0.32199705  0.72219800     0.05200
C1272       C  0.51620790  0.26066516  0.74464996     0.27600
C1273       C  0.98406491  0.25809315  0.73359901    -0.12900
C1274       C  0.95091698  0.24144133  0.74875978     0.05700
C1275       C  0.94924130  0.22599226  0.77514126    -0.08800
C1276       C  0.98225435  0.23007188  0.78637150     0.06500
C1277       C  0.51524759  0.24747873  0.77138912    -0.13200
Br1278     Br  0.56984827  0.34413948  0.75504428    -0.05300
Br1279     Br  0.60131191  0.22378676  0.68986603     0.00300
Br1280     Br  0.90890739  0.24232537  0.73341598     0.00800
Br1281     Br  0.55953124  0.25274955  0.78754571    -0.03600
Br1282     Br  0.65105987  0.35267610  0.74936882     0.00900
Br1283     Br  0.52229674  0.19934488  0.71414560    -0.02900
Br1284     Br  0.98588799  0.27779400  0.69753166    -0.03800
Br1285     Br  0.98363221  0.21080338  0.82191938     0.00200
C1286       C  0.68194178  0.36469772  0.69225861     0.01600
C1287       C  0.66450527  0.38797798  0.69209321     0.04400
C1288       C  0.68260113  0.42473470  0.70258891    -0.11600
C1289       C  0.71572958  0.43874849  0.71686181     0.23700
C1290       C  0.73250074  0.41693253  0.71877857    -0.12200
C1291       C  0.71790452  0.38221986  0.70516365     0.05200
C1292       C  0.73232437  0.47577751  0.73123316     0.27600
C1293       C  0.76515361  0.00650117  0.72162949    -0.12900
C1294       C  0.78283344  0.03955214  0.73728926     0.05700
C1295       C  0.76846053  0.04239177  0.76307115    -0.08800
C1296       C  0.73523436  0.01212811  0.77214061     0.06500
C1297       C  0.71666282  0.48004882  0.75580701    -0.13200
Br1298     Br  0.77565138  0.43494410  0.74199946    -0.05300
Br1299     Br  0.61443206  0.37244847  0.68034803     0.00300
Br1300     Br  0.82817210  0.07968552  0.72411255     0.00800
Br1301     Br  0.67111011  0.44041608  0.76909741    -0.03600
Br1302     Br  0.75161683  0.36352610  0.70558118     0.00900
Br1303     Br  0.66238463  0.45732345  0.69733603    -0.02900
Br1304     Br  0.78631755  0.00234806  0.68735602    -0.03800
Br1305     Br  0.71361338  0.01382175  0.80693946     0.00200
O1306       O  0.88500392  0.72966565  0.87217621    -0.78200
C1307       C  0.86647448  0.61311849  0.87619671     0.82800
O1308       O  0.88350661  0.68863997  0.77689292    -0.79300
O1309       O  0.78820915  0.57168417  0.80607860    -0.80800
O1310       O  0.75519187  0.64385782  0.86946184    -0.80600
O1311       O  0.83063075  0.72663743  0.87400140    -0.79200
Zn1312     Zn  0.87710976  0.68501719  0.84803570     1.55700
O1313       O  0.75595741  0.59117367  0.86233894    -0.80600
Cd1314     Cd  0.80004713  0.68203008  0.84808258     1.59700
Cd1315     Cd  0.82924993  0.66148039  0.79014414     1.59600
O1316       O  0.78161044  0.70177311  0.81709957    -0.80600
O1317       O  0.82839236  0.65920586  0.83168416    -1.91100
Cd1318     Cd  0.80333153  0.60559858  0.84049633     1.59900
O1319       O  0.80444060  0.69186533  0.77818225    -0.80600
O1320       O  0.83589063  0.59307577  0.86445020    -0.79200
C1321       C  0.91375445  0.70565605  0.78989606     0.83300
C1322       C  0.86429766  0.74231469  0.88052746     0.83000
O1323       O  0.88413551  0.64790506  0.87212914    -0.78200
C1324       C  0.74144092  0.60929679  0.87244002     0.83800
O1325       O  0.91417754  0.70602523  0.81623320    -0.78300
C1326       C  0.78636712  0.70452680  0.79117807     0.83900
C1327       C  0.78704792  0.57657631  0.78037287     0.84200
O1328       O  0.80092622  0.60905950  0.77057861    -0.80700
C1329       C  0.66129333  0.82243889  0.68200592    -0.02200
C1330       C  0.49812265  0.49413705  0.97823175    -0.02200
O1331       O  0.92563957  0.98156234  0.53544426    -0.78200
C1332       C  0.52966962  0.57970338  0.54696174     0.82800
O1333       O  0.97564484  0.52479789  0.44384066    -0.79300
O1334       O  0.58939832  0.54910021  0.47940078    -0.80800
O1335       O  0.52196092  0.94549458  0.54093791    -0.80600
O1336       O  0.93684790  0.93615599  0.54502822    -0.79200
Zn1337     Zn  0.96952589  0.51844367  0.51348686     1.55700
O1338       O  0.57036788  0.00190878  0.53848266    -0.80600
Cd1339     Cd  0.98111962  0.94776992  0.51811332     1.59700
Cd1340     Cd  0.00139492  0.99526424  0.46000690     1.59600
O1341       O  0.96386038  0.90853141  0.48614996    -0.80600
O1342       O  0.00131821  0.99780671  0.50136406    -1.91100
Cd1343     Cd  0.55276856  0.53132901  0.51307477     1.59900
O1344       O  0.97428987  0.94049621  0.44726930    -0.80600
O1345       O  0.55516082  0.57430623  0.53734975    -0.79200
C1346       C  0.95885641  0.53981945  0.45569173     0.83300
C1347       C  0.91757703  0.95208643  0.54828758     0.83000
O1348       O  0.49661598  0.55967589  0.53978853    -0.78200
C1349       C  0.55495579  0.96886639  0.54706610     0.83800
O1350       O  0.95455446  0.53877010  0.48169751    -0.78300
C1351       C  0.96246746  0.91002784  0.45989043     0.83900
C1352       C  0.58536786  0.53953280  0.45399064     0.84200
O1353       O  0.55384204  0.51860006  0.44370883    -0.80700
C1354       C  0.83282236  0.66329779  0.35143999    -0.02200
C1355       C  0.66339368  0.82602350  0.64445605    -0.02200
O1356       O  0.74377604  0.90246338  0.13065844    -0.78200
C1357       C  0.62916622  0.87515203  0.11881477     0.82800
O1358       O  0.69724679  0.88834377  0.22212120    -0.79300
O1359       O  0.58514564  0.79410373  0.18431729    -0.80800
O1360       O  0.66551384  0.76905078  0.12260738    -0.80600
O1361       O  0.74743905  0.85097471  0.12708779    -0.79200
Zn1362     Zn  0.69673719  0.88825170  0.15201372     1.55700
O1363       O  0.61086672  0.76236146  0.13233058    -0.80600
Cd1364     Cd  0.70039184  0.81280235  0.14838610     1.59700
Cd1365     Cd  0.67347195  0.83537309  0.20591084     1.59600
O1366       O  0.71704406  0.79072707  0.18005504    -0.80600
O1367       O  0.67378397  0.83753148  0.16463797    -1.91100
Cd1368     Cd  0.62175974  0.81024723  0.15215557     1.59900
O1369       O  0.70365352  0.81052804  0.21877472    -0.80600
O1370       O  0.60990461  0.84175971  0.12603486    -0.79200
C1371       C  0.70918808  0.91962795  0.21080296     0.83300
C1372       C  0.76023067  0.88524556  0.12239348     0.83000
O1373       O  0.66203412  0.89501524  0.12703729    -0.78200
C1374       C  0.63063764  0.75094666  0.12069219     0.83800
O1375       O  0.70952982  0.92322546  0.18474505    -0.78300
C1376       C  0.71780514  0.79339047  0.20628627     0.83900
C1377       C  0.58863490  0.79336961  0.21023282     0.84200
O1378       O  0.61995617  0.80675327  0.22172750    -0.80700
C1379       C  0.50662557  0.50219981  0.01482897    -0.02200
C1380       C  0.83915497  0.66638539  0.31480023    -0.02200
C1381       C  0.96597886  0.98649981  0.02931871     0.01600
C1382       C  0.95252618  0.00959737  0.04224459     0.04400
C1383       C  0.91970981  0.99498553  0.05813807    -0.11600
C1384       C  0.89630303  0.95730442  0.05995595     0.23700
C1385       C  0.90546095  0.93363797  0.04597475    -0.12200
C1386       C  0.94011054  0.94681999  0.03284279     0.05200
C1387       C  0.86166733  0.94203319  0.07675603     0.27600
C1388       C  0.86198345  0.93504189  0.10515187    -0.12900
C1389       C  0.82894828  0.91751008  0.12021817     0.05700
C1390       C  0.79517161  0.90572435  0.10692760    -0.08800
C1391       C  0.79493686  0.91436736  0.07898022     0.06500
C1392       C  0.82803979  0.93311947  0.06414610    -0.13200
Br1393     Br  0.86847755  0.88182915  0.04504526    -0.05300
Br1394     Br  0.97295664  0.56061283  0.04025469     0.00300
Br1395     Br  0.82987790  0.91094187  0.15939369     0.00800
Br1396     Br  0.82749611  0.94730578  0.02664784    -0.03600
Br1397     Br  0.94866345  0.90565370  0.02605347     0.00900
Br1398     Br  0.90318166  0.52445561  0.07738412    -0.02900
Br1399     Br  0.90764759  0.95003228  0.12368545    -0.03800
Br1400     Br  0.74901980  0.89976400  0.06088773     0.00200
C1401       C  0.53368587  0.54396810  0.02805753     0.01600
C1402       C  0.55661087  0.57993627  0.01574313     0.04400
C1403       C  0.56794046  0.61337283  0.03096739    -0.11600
C1404       C  0.56052093  0.61270595  0.05906960     0.23700
C1405       C  0.54275441  0.57876123  0.07206896    -0.12200
C1406       C  0.53779792  0.54726871  0.05771528     0.05200
C1407       C  0.57752112  0.64750177  0.07559515     0.27600
C1408       C  0.61180695  0.65950978  0.08817618    -0.12900
C1409       C  0.62838948  0.69234934  0.10369544     0.05700
C1410       C  0.61234970  0.71538631  0.10499193    -0.08800
C1411       C  0.57798602  0.70339445  0.09188365     0.06500
C1412       C  0.56062099  0.66941995  0.07769136    -0.13200
Br1413     Br  0.53221507  0.57594235  0.11092154    -0.05300
Br1414     Br  0.58309090  0.59083409  0.98208565     0.00300
Br1415     Br  0.67151663  0.70323167  0.12492869     0.00800
Br1416     Br  0.51389676  0.65327105  0.06033537    -0.03600
Br1417     Br  0.07430101  0.53864061  0.07471125     0.00900
Br1418     Br  0.59388275  0.66157018  0.01379219    -0.02900
Br1419     Br  0.63717283  0.63173376  0.08332538    -0.03800
Br1420     Br  0.55399185  0.73299705  0.09216896     0.00200
C1421       C  0.52609148  0.98098208  0.02960128     0.01600
C1422       C  0.56259112  0.98750632  0.02303633     0.04400
C1423       C  0.57812439  0.96720848  0.03506436    -0.11600
C1424       C  0.55975683  0.94181500  0.05578597     0.23700
C1425       C  0.52707156  0.93851152  0.06577455    -0.12200
C1426       C  0.51351927  0.96134956  0.05572916     0.05200
C1427       C  0.57846883  0.92468401  0.07111992     0.27600
C1428       C  0.57677810  0.89167574  0.06185154    -0.12900
C1429       C  0.59386343  0.87555412  0.07705426     0.05700
C1430       C  0.61230864  0.89212964  0.10181734    -0.08800
C1431       C  0.61375027  0.92490159  0.11110914     0.06500
C1432       C  0.59778898  0.94149942  0.09554807    -0.13200
Br1433     Br  0.50288586  0.90476135  0.09575424    -0.05300
Br1434     Br  0.59850581  0.03063992  0.00618652     0.00300
Br1435     Br  0.59280207  0.83136368  0.06352198     0.00800
Br1436     Br  0.60299909  0.98759323  0.10821038    -0.03600
Br1437     Br  0.98724068  0.97182192  0.08451615     0.00900
Br1438     Br  0.62610616  0.97497575  0.02440161    -0.02900
Br1439     Br  0.55123227  0.86859690  0.02834869    -0.03800
Br1440     Br  0.63501124  0.94583635  0.14649985     0.00200
C1441       C  0.81826775  0.68690684  0.30092747     0.01600
C1442       C  0.78398382  0.66787000  0.28552286     0.04400
C1443       C  0.76998923  0.68682283  0.26962990    -0.11600
C1444       C  0.78676198  0.72503046  0.26979752     0.23700
C1445       C  0.81914867  0.74501283  0.28434325    -0.12200
C1446       C  0.83653164  0.72722289  0.29743694     0.05200
C1447       C  0.77036630  0.74422054  0.25396654     0.27600
C1448       C  0.78321759  0.75798929  0.22743106    -0.12900
C1449       C  0.76679690  0.77472495  0.21212822     0.05700
C1450       C  0.73591761  0.77634569  0.22269132    -0.08800
C1451       C  0.72290059  0.76194901  0.24931359     0.06500
C1452       C  0.74094394  0.74737449  0.26509991    -0.13200
Br1453     Br  0.83912665  0.79806925  0.28609979    -0.05300
Br1454     Br  0.75196639  0.61601879  0.28339741     0.00300
Br1455     Br  0.78853571  0.79678247  0.17725100     0.00800
Br1456     Br  0.72587470  0.73219477  0.30247531    -0.03600
Br1457     Br  0.88637029  0.76307993  0.30753809     0.00900
Br1458     Br  0.72736530  0.66088594  0.24589482    -0.02900
Br1459     Br  0.82367953  0.75398905  0.21205290    -0.03800
Br1460     Br  0.67866195  0.75908283  0.26403985     0.00200
C1461       C  0.72488301  0.95296305  0.22838590     0.01600
C1462       C  0.76048086  0.96684644  0.23870709     0.04400
C1463       C  0.77671889  0.99966877  0.25424220    -0.11600
C1464       C  0.75660420  0.51885798  0.26000498     0.23700
C1465       C  0.72098532  0.00402391  0.25032249    -0.12200
C1466       C  0.70495900  0.97126025  0.23450768     0.05200
C1467       C  0.77576417  0.55573255  0.27395851     0.27600
C1468       C  0.77335612  0.55941546  0.30260860    -0.12900
C1469       C  0.80196712  0.59013208  0.31650807     0.05700
C1470       C  0.82423196  0.62412016  0.30214093    -0.08800
C1471       C  0.83016851  0.61633639  0.27417594     0.06500
C1472       C  0.80311857  0.58564133  0.25966845    -0.13200
Br1473     Br  0.69206961  0.52778181  0.25859413    -0.05300
Br1474     Br  0.78745893  0.94124247  0.23059272     0.00300
Br1475     Br  0.82653198  0.56348298  0.32787003     0.00800
Br1476     Br  0.80557185  0.58337162  0.22007215    -0.03600
Br1477     Br  0.65558929  0.95113748  0.22124777     0.00900
Br1478     Br  0.82606002  0.01811721  0.26718243    -0.02900
Br1479     Br  0.73726019  0.01795383  0.32295229    -0.03800
Br1480     Br  0.87688595  0.62248994  0.26253877     0.00200
C1481       C  0.55487577  0.77564926  0.22704466     0.01600
C1482       C  0.53294673  0.73707421  0.22653542     0.04400
C1483       C  0.49910839  0.72001756  0.24046250    -0.11600
C1484       C  0.98705534  0.74134551  0.25537953     0.23700
C1485       C  0.50948812  0.78006034  0.25625510    -0.12200
C1486       C  0.54291715  0.79712088  0.24171846     0.05200
C1487       C  0.95085108  0.72340689  0.27006735     0.27600
C1488       C  0.91856606  0.71432780  0.25616826    -0.12900
C1489       C  0.88408746  0.69723024  0.27003647     0.05700
C1490       C  0.88047758  0.69011418  0.30011934    -0.08800
C1491       C  0.91655404  0.70824354  0.31321730     0.06500
C1492       C  0.94946361  0.71881748  0.29833833    -0.13200
Br1493     Br  0.99435507  0.80975317  0.27731842    -0.05300
Br1494     Br  0.54951541  0.70765150  0.20656722     0.00300
Br1495     Br  0.84457632  0.68478478  0.24380491     0.00800
Br1496     Br  0.99490401  0.72958785  0.31667821    -0.03600
Br1497     Br  0.57142987  0.85003372  0.24040293     0.00900
Br1498     Br  0.96925413  0.66734946  0.23882193    -0.02900
Br1499     Br  0.92285336  0.72437953  0.21688498    -0.03800
Br1500     Br  0.92968752  0.73080682  0.34853951     0.00200
C1501       C  0.61823356  0.55341715  0.43576607     0.01600
C1502       C  0.63320804  0.53068016  0.42820480     0.04400
C1503       C  0.66569801  0.54477045  0.41232490    -0.11600
C1504       C  0.68285160  0.58140368  0.40285092     0.23700
C1505       C  0.66676740  0.60356393  0.40956889    -0.12200
C1506       C  0.63494665  0.58973013  0.42602392     0.05200
C1507       C  0.72008697  0.59888943  0.38940766     0.27600
C1508       C  0.75036183  0.62256195  0.40522050    -0.12900
C1509       C  0.78302763  0.64907223  0.39260087     0.05700
C1510       C  0.79046355  0.64745529  0.36338027    -0.08800
C1511       C  0.75682276  0.62752468  0.34810399     0.06500
C1512       C  0.72476753  0.59890588  0.36066322    -0.13200
Br1513     Br  0.68915360  0.65383531  0.39737158    -0.05300
Br1514     Br  0.60963712  0.48036298  0.44029237     0.00300
Br1515     Br  0.79797464  0.69418462  0.41285197     0.00800
Br1516     Br  0.68380326  0.56534174  0.33829872    -0.03600
Br1517     Br  0.61394114  0.62057337  0.43538818     0.00900
Br1518     Br  0.68779762  0.51450990  0.40504369    -0.02900
Br1519     Br  0.74647385  0.61921077  0.44499671    -0.03800
Br1520     Br  0.73437384  0.65536046  0.33488971     0.00200
C1521       C  0.85375734  0.70232966  0.36823152     0.01600
C1522       C  0.84867273  0.73373442  0.36297276     0.04400
C1523       C  0.87140338  0.76890914  0.37498499    -0.11600
C1524       C  0.89580812  0.77344887  0.39602517     0.23700
C1525       C  0.89768652  0.74272145  0.40499334    -0.12200
C1526       C  0.87445938  0.70732945  0.39363379     0.05200
C1527       C  0.91365975  0.80859328  0.41242157     0.27600
C1528       C  0.94742722  0.83832111  0.40425610    -0.12900
C1529       C  0.96420333  0.87093636  0.42030021     0.05700
C1530       C  0.94600159  0.87518460  0.44350663    -0.08800
C1531       C  0.91136099  0.84610587  0.45071282     0.06500
C1532       C  0.89600228  0.81265143  0.43598181    -0.13200
Br1533     Br  0.93232292  0.74958604  0.43376993    -0.05300
Br1534     Br  0.80336735  0.72987211  0.35116212     0.00300
Br1535     Br  0.01294097  0.90881758  0.41119205     0.00800
Br1536     Br  0.85032253  0.77270418  0.44834100    -0.03600
Br1537     Br  0.86282695  0.67013898  0.42121725     0.00900
Br1538     Br  0.86717442  0.81153283  0.36445971    -0.02900
Br1539     Br  0.96998607  0.83461817  0.37061046    -0.03800
Br1540     Br  0.88311068  0.85296746  0.47927518     0.00200
C1541       C  0.84922737  0.63713902  0.36323914     0.01600
C1542       C  0.83002671  0.60542829  0.38125346     0.04400
C1543       C  0.84919662  0.59240474  0.39800492    -0.11600
C1544       C  0.88746500  0.60920281  0.39741216     0.23700
C1545       C  0.90649115  0.63952301  0.38023146    -0.12200
C1546       C  0.88728537  0.64720108  0.35994196     0.05200
C1547       C  0.90707130  0.59202179  0.41183317     0.27600
C1548       C  0.93053375  0.60990870  0.43428092    -0.12900
C1549       C  0.95009374  0.59432460  0.44664636     0.05700
C1550       C  0.94322273  0.55869205  0.43915086    -0.08800
C1551       C  0.91927851  0.54033005  0.41715840     0.06500
C1552       C  0.90255110  0.55750882  0.40285826    -0.13200
Br1553     Br  0.95948660  0.66424118  0.37890725    -0.05300
Br1554     Br  0.77874137  0.57142963  0.38043071     0.00300
Br1555     Br  0.98896375  0.62341444  0.47194238     0.00800
Br1556     Br  0.87335832  0.53304806  0.37100112    -0.03600
Br1557     Br  0.90451567  0.63490726  0.32683768     0.00900
Br1558     Br  0.82361130  0.55317853  0.42435001    -0.02900
Br1559     Br  0.93497378  0.65501147  0.44909460    -0.03800
Br1560     Br  0.90747370  0.98958318  0.40750028     0.00200
C1561       C  0.88483206  0.93651039  0.56710834     0.01600
C1562       C  0.87690588  0.96026444  0.58341392     0.04400
C1563       C  0.84309654  0.94658833  0.59750236    -0.11600
C1564       C  0.81692933  0.90893287  0.59594473     0.23700
C1565       C  0.82583216  0.88496300  0.58114409    -0.12200
C1566       C  0.85987358  0.89836678  0.56768284     0.05200
C1567       C  0.77969383  0.89384110  0.60916664     0.27600
C1568       C  0.77379138  0.88137022  0.63619765    -0.12900
C1569       C  0.73874069  0.85234794  0.64425787     0.05700
C1570       C  0.70522971  0.84494959  0.63033374    -0.08800
C1571       C  0.71325607  0.86160761  0.60260086     0.06500
C1572       C  0.74940675  0.88531978  0.59292026    -0.13200
Br1573     Br  0.79052189  0.83349515  0.57791581    -0.05300
Br1574     Br  0.91177855  0.51222656  0.58768512     0.00300
Br1575     Br  0.75062152  0.81392771  0.64960596     0.00800
Br1576     Br  0.75919193  0.90912809  0.55723021    -0.03600
Br1577     Br  0.87167577  0.86360759  0.55045385     0.00900
Br1578     Br  0.83204587  0.97953435  0.61836752    -0.02900
Br1579     Br  0.81708098  0.89715223  0.65886482    -0.03800
Br1580     Br  0.67876136  0.85052599  0.57331630     0.00200
C1581       C  0.63703159  0.78614950  0.63092416     0.01600
C1582       C  0.59824811  0.76502150  0.63825828     0.04400
C1583       C  0.57651639  0.72795759  0.62950481    -0.11600
C1584       C  0.58905275  0.71308710  0.60919778     0.23700
C1585       C  0.62256492  0.73524316  0.59664390    -0.12200
C1586       C  0.64773263  0.76962669  0.60826479     0.05200
C1587       C  0.56615573  0.67493689  0.59871422     0.27600
C1588       C  0.57490522  0.64737578  0.60566083    -0.12900
C1589       C  0.56240549  0.61564825  0.58909561     0.05700
C1590       C  0.53859597  0.61003895  0.56695284    -0.08800
C1591       C  0.52376577  0.63394059  0.56415840     0.06500
C1592       C  0.53949449  0.66757747  0.57853187    -0.13200
Br1593     Br  0.63321214  0.71712221  0.56257923    -0.05300
Br1594     Br  0.56757722  0.78551460  0.65150779     0.00300
Br1595     Br  0.57606612  0.57886040  0.59786250     0.00800
Br1596     Br  0.52648475  0.70458832  0.56903414    -0.03600
Br1597     Br  0.69629216  0.78371708  0.59421202     0.00900
Br1598     Br  0.52727044  0.69747096  0.64318197    -0.02900
Br1599     Br  0.60369404  0.65293060  0.63782985    -0.03800
Br1600     Br  0.48115471  0.62098007  0.54208991     0.00200
C1601       C  0.57587040  0.95698445  0.56476615     0.01600
C1602       C  0.60591981  0.95455298  0.55402895     0.04400
C1603       C  0.62187609  0.93754085  0.56937678    -0.11600
C1604       C  0.60968784  0.92527981  0.59640365     0.23700
C1605       C  0.58179610  0.93085662  0.60800666    -0.12200
C1606       C  0.56444886  0.94593625  0.59202117     0.05200
C1607       C  0.62254858  0.90195911  0.61060652     0.27600
C1608       C  0.60147031  0.86401562  0.60825298    -0.12900
C1609       C  0.61706801  0.84141755  0.61322086     0.05700
C1610       C  0.64924489  0.85349808  0.63129816    -0.08800
C1611       C  0.67129243  0.89393921  0.63207831     0.06500
C1612       C  0.65779218  0.91695408  0.62158548    -0.13200
Br1613     Br  0.56566558  0.91555676  0.64515346    -0.05300
Br1614     Br  0.62427743  0.97303597  0.51779604     0.00300
Br1615     Br  0.59568915  0.80035723  0.58644357     0.00800
Br1616     Br  0.68703573  0.97017370  0.62220585    -0.03600
Br1617     Br  0.52490314  0.95158505  0.60735144     0.00900
Br1618     Br  0.65833402  0.92820179  0.55238698    -0.02900
Br1619     Br  0.55143903  0.84304539  0.59481647    -0.03800
Br1620     Br  0.72186983  0.92224796  0.64434292     0.00200
C1621       C  0.87979339  0.77712424  0.89700947     0.01600
C1622       C  0.87241749  0.77681594  0.92540855     0.04400
C1623       C  0.88629861  0.81020096  0.94054932    -0.11600
C1624       C  0.90695673  0.84440684  0.92731996     0.23700
C1625       C  0.91357419  0.84449608  0.89873755    -0.12200
C1626       C  0.90059559  0.81115784  0.88383417     0.05200
C1627       C  0.92699498  0.87938289  0.94407809     0.27600
C1628       C  0.91050687  0.89988579  0.95298608    -0.12900
C1629       C  0.93068595  0.93358005  0.96803558     0.05700
C1630       C  0.97020273  0.94989828  0.97293446    -0.08800
C1631       C  0.98230931  0.92272767  0.96901050     0.06500
C1632       C  0.96211033  0.88994941  0.95332142    -0.13200
Br1633     Br  0.94143682  0.89022731  0.87981821    -0.05300
Br1634     Br  0.84500546  0.73042769  0.94381083     0.00300
Br1635     Br  0.90022067  0.95354517  0.98186192     0.00800
Br1636     Br  0.48235745  0.85780971  0.94405457    -0.03600
Br1637     Br  0.91187535  0.81199846  0.84518914     0.00900
Br1638     Br  0.87885730  0.80918102  0.97979154    -0.02900
Br1639     Br  0.85964544  0.88125367  0.94360458    -0.03800
Br1640     Br  0.52164663  0.92129544  0.98797025     0.00200
C1641       C  0.70737207  0.58942879  0.88805232     0.01600
C1642       C  0.70744095  0.59389441  0.91673884     0.04400
C1643       C  0.67451400  0.57577168  0.93153331    -0.11600
C1644       C  0.64173788  0.55147258  0.91785951     0.23700
C1645       C  0.64215946  0.54627657  0.88906786    -0.12200
C1646       C  0.67456618  0.56666633  0.87413932     0.05200
C1647       C  0.60591537  0.53753441  0.93202204     0.27600
C1648       C  0.59043342  0.50509666  0.94713461    -0.12900
C1649       C  0.55268379  0.48754876  0.95256969     0.05700
C1650       C  0.53421366  0.50845537  0.95725450    -0.08800
C1651       C  0.54836133  0.53886185  0.93723769     0.06500
C1652       C  0.58440326  0.55367171  0.92613007    -0.13200
Br1653     Br  0.59763354  0.51419122  0.86948171    -0.05300
Br1654     Br  0.75250923  0.62639856  0.93546321     0.00300
Br1655     Br  0.53302559  0.95269357  0.92079848     0.00800
Br1656     Br  0.60740877  0.59916157  0.90475796    -0.03600
Br1657     Br  0.67304469  0.56790247  0.83453929     0.00900
Br1658     Br  0.67427763  0.58725568  0.96984578    -0.02900
Br1659     Br  0.61697416  0.47863753  0.95205031    -0.03800
Br1660     Br  0.52629466  0.56603620  0.92254231     0.00200
C1661       C  0.97488880  0.51231474  0.96462388     0.01600
C1662       C  0.96707862  0.53913782  0.97743246     0.04400
C1663       C  0.93735047  0.54367266  0.96855915    -0.10700
C1664       C  0.92691629  0.53730784  0.94092438     0.23700
C1665       C  0.93663635  0.51493755  0.92549344    -0.12200
C1666       C  0.95831595  0.50086596  0.93724917     0.05200
C1667       C  0.91083002  0.55829049  0.92692891     0.27600
C1668       C  0.87274323  0.54355399  0.92459359    -0.12900
C1669       C  0.85809201  0.56216461  0.90931194     0.05700
C1670       C  0.88151797  0.59483576  0.89461119    -0.08800
C1671       C  0.91968302  0.60925740  0.89706964     0.06500
C1672       C  0.93395419  0.59220066  0.91408287    -0.13200
Br1673     Br  0.92061264  0.50480942  0.88751434    -0.05300
Br1674     Br  0.00466946  0.58949282  0.98066562     0.00300
Br1675     Br  0.80572564  0.54267674  0.90982234     0.00800
Br1676     Br  0.98577232  0.61694269  0.91976062    -0.03600
Br1677     Br  0.96756270  0.97283635  0.91235325     0.00900
Br1678     Br  0.91886539  0.56938766  0.99119870    -0.02900
Br1679     Br  0.84082747  0.49766918  0.94246410    -0.03800
Br1680     Br  0.95357066  0.65054106  0.87534644     0.00200
C1681       C  0.67789800  0.79862473  0.69777217     0.01600
C1682       C  0.68824385  0.77220700  0.68705578     0.04400
C1683       C  0.70955247  0.76091409  0.70287273    -0.11600
C1684       C  0.71995574  0.77380229  0.72970353     0.23700
C1685       C  0.70759388  0.79627958  0.74141840    -0.12200
C1686       C  0.68040941  0.80028316  0.72775212     0.05200
C1687       C  0.73720532  0.75745763  0.74704704     0.27600
C1688       C  0.71516046  0.72249088  0.75878929    -0.12900
C1689       C  0.73143828  0.70511667  0.77307042     0.05700
C1690       C  0.76968336  0.72265340  0.77579691    -0.08800
C1691       C  0.79167893  0.75775539  0.76453848     0.06500
C1692       C  0.77547178  0.77490923  0.74977391    -0.13200
Br1693     Br  0.72089295  0.81431736  0.77869762    -0.05300
Br1694     Br  0.67066428  0.74223117  0.65482497     0.00300
Br1695     Br  0.70149171  0.65656916  0.78802250     0.00800
Br1696     Br  0.80556952  0.82143244  0.73224392    -0.03600
Br1697     Br  0.63870904  0.77001100  0.75093692     0.00900
Br1698     Br  0.72551834  0.72713968  0.68841825    -0.02900
Br1699     Br  0.66274119  0.69730672  0.75407843    -0.03800
Br1700     Br  0.84383392  0.78269419  0.77016949     0.00200
C1701       C  0.62164286  0.80372827  0.69902948     0.01600
C1702       C  0.59416267  0.76445424  0.70000321     0.04400
C1703       C  0.55956421  0.75163828  0.71342276    -0.11600
C1704       C  0.55114773  0.77598093  0.72748644     0.23700
C1705       C  0.57889512  0.81209635  0.73113728    -0.12200
C1706       C  0.61463320  0.82282086  0.72175231     0.05200
C1707       C  0.51642350  0.76135930  0.74392134     0.27600
C1708       C  0.98358811  0.75537053  0.73174333    -0.12900
C1709       C  0.95030014  0.73819417  0.74666587     0.05700
C1710       C  0.94923059  0.72545901  0.77400244    -0.08800
C1711       C  0.98277590  0.73200475  0.78601292     0.06500
C1712       C  0.51589849  0.75047952  0.77133118    -0.13200
Br1713     Br  0.56918828  0.84555417  0.75287379    -0.05300
Br1714     Br  0.60238144  0.72412867  0.69109656     0.00300
Br1715     Br  0.90707836  0.73379374  0.72898481     0.00800
Br1716     Br  0.56103409  0.76012714  0.78880114    -0.03600
Br1717     Br  0.65062678  0.85380846  0.74911211     0.00900
Br1718     Br  0.52361160  0.69960735  0.71549159    -0.02900
Br1719     Br  0.98456224  0.77066090  0.69426342    -0.03800
Br1720     Br  0.98466711  0.71373642  0.82190050     0.00200
C1721       C  0.68259495  0.86521463  0.69235301     0.01600
C1722       C  0.66523744  0.88856733  0.69171600     0.04400
C1723       C  0.68326361  0.92538318  0.70206434    -0.11600
C1724       C  0.71608471  0.93929758  0.71669236     0.23700
C1725       C  0.73273321  0.91745257  0.71907558    -0.12200
C1726       C  0.71838279  0.88278291  0.70550555     0.05200
C1727       C  0.73244279  0.97615069  0.73115434     0.27600
C1728       C  0.76496931  0.50610458  0.72152837    -0.12900
C1729       C  0.78242564  0.53954354  0.73680411     0.05700
C1730       C  0.76763127  0.54303495  0.76220936    -0.08800
C1731       C  0.73414213  0.51308398  0.77116257     0.06500
C1732       C  0.71705796  0.97986963  0.75603367    -0.13200
Br1733     Br  0.77531374  0.93536562  0.74291849    -0.05300
Br1734     Br  0.61530112  0.87308348  0.67966783     0.00300
Br1735     Br  0.82776154  0.57951545  0.72347127     0.00800
Br1736     Br  0.67075974  0.94066835  0.76856802    -0.03600
Br1737     Br  0.75230936  0.86440035  0.70621849     0.00900
Br1738     Br  0.66320641  0.95804401  0.69645687    -0.02900
Br1739     Br  0.78631622  0.50146806  0.68749144    -0.03800
Br1740     Br  0.71091889  0.51682151  0.80450503     0.00200
loop_ 
_geom_bond_atom_site_label_1 
_geom_bond_atom_site_label_2 
_geom_bond_distance 
_geom_bond_site_symmetry_2 
_ccdc_geom_bond_type 
O1           C17   1.278       .  A
O1           Zn7   2.066       .  S
C2           O18   1.283       .  A
C2           O15   1.271       .  A
C2          C365   1.501       .  S
O3           C16   1.278       .  A
O3          Cd10   2.096       .  S
O4           C22   1.272       .  A
O4          Cd13   2.065       .  S
O5           C19   1.273       .  A
O5           Cd9   2.059       .  S
O6           C17   1.274       .  A
O6           Cd9   2.086       .  S
Zn7          O18   2.079       .  S
Zn7          O20   2.059       .  S
Zn7          O12   1.951       .  S
O8           C19   1.272       .  A
O8          Cd13   2.058       .  S
Cd9          O11   2.057       .  S
Cd9          O12   2.010       .  S
Cd10         O14   2.084       .  S
Cd10         O23   2.124       .  S
Cd10         O12   2.021       .  S
O11          C21   1.273       .  A
O12         Cd13   2.001       .  S
Cd13         O15   2.053       .  S
O14          C21   1.277       .  A
C16          O20   1.282       .  A
C16         C405   1.514       .  S
C17         C316   1.493       .  S
C19         C336   1.464       .  S
C21         C385   1.470       .  S
C22          O23   1.280       .  A
C22         C425   1.503       .  S
C24          C50   1.835       .  S
C24         C376   1.663       .  S
C24         C396   1.671       .  S
C24         C416   1.631       .  S
C25          C74   1.810   1_666  S
C25         C345   1.672   1_665  S
C25        C1630   1.664       .  S
C25        C1226   1.643   1_565  S
O26          C42   1.273       .  A
O26        Zn467   2.026       .  S
C27          O43   1.268   1_455  A
C27          O40   1.280       .  A
C27         C285   1.484       .  S
O28          C41   1.280       .  A
O28        Cd470   2.105   1_545  S
O29          C47   1.281       .  A
O29         Cd38   2.114       .  S
O30          C44   1.278       .  A
O30        Cd904   2.085   1_455  S
O31          C42   1.281       .  A
O31         Cd34   2.122       .  S
Zn32         O45   2.015       .  S
Zn32        O461   2.024   1_545  S
Zn32        O913   1.985       .  S
Zn32        O472   1.949   1_545  S
O33          C44   1.275       .  A
O33        Cd473   2.079       .  S
Cd34         O36   2.101       .  S
Cd34        O900   2.085       .  S
Cd34         O37   2.006       .  S
Cd35         O39   2.083       .  S
Cd35        O463   2.103       .  S
Cd35       O1353   2.098       .  S
Cd35         O37   2.012       .  S
O36          C46   1.282       .  A
O37        Zn467   1.950       .  S
O37       Cd1343   2.014       .  S
Cd38         O40   2.096       .  S
Cd38        O468   2.080       .  S
Cd38       O1342   2.015   1_545  S
O39          C46   1.278       .  A
C41          O45   1.274       .  A
C41         C245   1.489       .  S
C42         C256   1.508       .  S
O43        Zn902   1.985       .  S
C44         C296   1.481       .  S
C46         C225   1.492       .  S
C47          O48   1.277       .  A
C47         C196   1.495       .  S
O48       Cd1340   2.098   1_545  S
C49          C75   1.796       .  S
C49         C205   1.666       .  S
C49         C216   1.635       .  S
C49         C236   1.656       .  S
C50         C265   1.679       .  S
C50         C276   1.616       .  S
C50         C305   1.661       .  S
O51          C67   1.276       .  A
O51         Zn57   2.043       .  S
C52          O68   1.276       .  A
C52          O65   1.273       .  A
C52         C125   1.481       .  S
O53          C66   1.275       .  A
O53         Cd60   2.075       .  S
O54          C72   1.271       .  A
O54         Cd63   2.058       .  S
O55          C69   1.280       .  A
O55         Cd59   2.093       .  S
O56          C67   1.279       .  A
O56         Cd59   2.104       .  S
Zn57         O68   2.026       .  S
Zn57         O70   2.035       .  S
Zn57         O62   1.951       .  S
O58          C69   1.268       .  A
O58         Cd63   2.048       .  S
Cd59         O61   2.091       .  S
Cd59         O62   2.006       .  S
Cd60         O64   2.091       .  S
Cd60         O73   2.101       .  S
Cd60         O62   2.010       .  S
O61          C71   1.278       .  A
O62         Cd63   1.999       .  S
Cd63         O65   2.066       .  S
O64          C71   1.278       .  A
C66          O70   1.276       .  A
C66         C156   1.476       .  S
C67          C85   1.489       .  S
C69         C105   1.495       .  S
C71         C145   1.503       .  S
C72          O73   1.278       .  A
C72         C176   1.480       .  S
C74          C96   1.670       .  S
C74        C1381   1.662   1_445  S
C74         C551   1.643   1_545  S
C75         C136   1.644       .  S
C75         C165   1.668       .  S
C75         C185   1.677       .  S
C76        C1379   1.662       .  S
C76          C77   1.468       .  A
C76          C81   1.481       .  A
C77          C78   1.428       .  A
C77        Br524   1.909       .  S
C78          C79   1.390       .  A
C78        Br528   1.951       .  S
C79          C82   1.509       .  S
C79          C80   1.392       .  A
C80          C81   1.428       .  A
C80         Br88   1.949       .  S
C81         Br92   1.942       .  S
C82          C83   1.416       .  A
C82          C87   1.412       .  A
C83          C84   1.414       .  A
C83         Br94   1.925       .  S
C84          C85   1.409       .  A
C84         Br90   1.930       .  S
C85          C86   1.410       .  A
C86          C87   1.413       .  A
C86         Br95   1.927       .  S
C87         Br91   1.926       .  S
Br89        C512   1.909       .  S
Br93        C513   1.950   1_545  S
C96          C97   1.461       .  A
C96         C101   1.448       .  A
C97          C98   1.434       .  A
C97        Br109   1.905   1_554  S
C98          C99   1.399       .  A
C98        Br113   1.950       .  S
C99         C102   1.494       .  S
C99         C100   1.393       .  A
C100        C101   1.403       .  A
C100       Br108   1.929       .  S
C101       Br982   1.923       .  S
C102        C103   1.412       .  A
C102        C107   1.407       .  A
C103        C104   1.408       .  A
C103       Br114   1.928       .  S
C104        C105   1.416       .  A
C104       Br110   1.937       .  S
C105        C106   1.424       .  A
C106        C107   1.410       .  A
C106       Br115   1.935       .  S
C107       Br111   1.928       .  S
Br112       C971   1.923       .  S
C116        C509   1.645       .  S
C116        C117   1.453       .  A
C116        C121   1.468       .  A
C117        C118   1.427       .  A
C117       Br129   1.885       .  S
C118        C119   1.395       .  A
C118       Br133   1.944       .  S
C119        C122   1.499       .  S
C119        C120   1.394       .  A
C120        C121   1.417       .  A
C120       Br128   1.941       .  S
C121      Br1002   1.951   1_455  S
C122        C123   1.412       .  A
C122        C127   1.413       .  A
C123        C124   1.413       .  A
C123       Br134   1.925       .  S
C124        C125   1.413       .  A
C124       Br130   1.929       .  S
C125        C126   1.408       .  A
C126        C127   1.404       .  A
C126       Br135   1.934       .  S
C127       Br131   1.921       .  S
Br132       C991   1.951       .  S
C136        C137   1.463       .  A
C136        C141   1.478       .  A
C137        C138   1.427       .  A
C137       Br149   1.909       .  S
C138        C139   1.392       .  A
C138       Br153   1.950       .  S
C139        C142   1.504       .  S
C139        C140   1.390       .  A
C140        C141   1.424       .  A
C140       Br148   1.945       .  S
C141       Br152   1.945       .  S
C142        C143   1.411       .  A
C142        C147   1.409       .  A
C143        C144   1.414       .  A
C143       Br154   1.930       .  S
C144        C145   1.421       .  A
C144       Br150   1.935       .  S
C145        C146   1.421       .  A
C146        C147   1.413       .  A
C146       Br155   1.933       .  S
C147       Br151   1.929       .  S
C156        C157   1.404       .  A
C156        C161   1.408       .  A
C157        C158   1.406       .  A
C157       Br169   1.934       .  S
C158        C594   1.418       .  A
C158       Br173   1.928       .  S
C159        C162   1.500       .  S
C159        C593   1.419   1_545  A
C159        C595   1.413       .  A
C160        C161   1.412       .  A
C160        C594   1.413       .  A
C160       Br603   1.924       .  S
C161       Br172   1.926       .  S
C162        C163   1.408       .  A
C162        C167   1.401       .  A
C163        C164   1.424       .  A
C163       Br609   1.934       .  S
C164        C165   1.444       .  A
C164       Br170   1.932       .  S
C165        C166   1.443       .  A
C166        C167   1.412       .  A
C166       Br175   1.929       .  S
C167       Br171   1.930       .  S
Br168       C595   1.923       .  S
Br174       C598   1.934       .  S
C176        C177   1.409       .  A
C176        C181   1.408       .  A
C177        C178   1.411   1_455  A
C177       Br189   1.932       .  S
C178       C1049   1.413       .  A
C178      Br1063   1.924       .  S
C179        C182   1.503       .  S
C179       C1048   1.413       .  A
C179       C1050   1.415       .  A
C180        C181   1.411       .  A
C180       C1049   1.415   1_455  A
C180      Br1058   1.929   1_455  S
C181       Br192   1.929       .  S
C182        C183   1.391       .  A
C182        C187   1.386       .  A
C183        C184   1.430       .  A
C183       Br194   1.948       .  S
C184        C185   1.487       .  A
C184       Br190   1.952       .  S
C185        C186   1.466       .  A
C186        C187   1.422       .  A
C186       Br195   1.899       .  S
C187       Br191   1.950       .  S
Br188      C1050   1.929       .  S
Br193      C1048   1.924       .  S
C196        C197   1.414       .  A
C196        C201   1.407       .  A
C197        C198   1.419       .  A
C197       Br209   1.927   1_545  S
C198        C199   1.413       .  A
C198       Br213   1.925       .  S
C199        C202   1.510       .  S
C199        C200   1.419       .  A
C200        C201   1.414       .  A
C200       Br208   1.929       .  S
C201       Br212   1.930       .  S
C202        C203   1.395       .  A
C202        C207   1.410       .  A
C203        C204   1.413       .  A
C203       Br214   1.940       .  S
C204        C205   1.461       .  A
C204       Br210   1.929       .  S
C205        C206   1.445       .  A
C206        C207   1.428       .  A
C206       Br215   1.932       .  S
C207       Br211   1.932       .  S
C216        C217   1.451       .  A
C216        C221   1.467       .  A
C217        C218   1.422       .  A
C217       Br229   1.916       .  S
C218        C219   1.395       .  A
C218       Br233   1.944       .  S
C219        C222   1.502       .  S
C219        C220   1.395       .  A
C220        C221   1.421       .  A
C220       Br228   1.938       .  S
C221       Br232   1.932       .  S
C222        C223   1.410       .  A
C222        C227   1.413       .  A
C223        C224   1.415       .  A
C223       Br234   1.928       .  S
C224        C225   1.416       .  A
C224       Br230   1.928       .  S
C225        C226   1.409       .  A
C226        C227   1.407       .  A
C226       Br235   1.928       .  S
C227       Br231   1.922       .  S
C236        C237   1.462       .  A
C236        C241   1.447       .  A
C237        C238   1.430       .  A
C237       Br249   1.913       .  S
C238        C239   1.403       .  A
C238       Br253   1.943       .  S
C239        C242   1.508       .  S
C239        C240   1.400       .  A
C240        C241   1.412       .  A
C240       Br248   1.941       .  S
C241       Br252   1.926       .  S
C242        C243   1.412       .  A
C242        C247   1.421       .  A
C243        C244   1.411       .  A
C243       Br254   1.928       .  S
C244        C245   1.412       .  A
C244       Br250   1.924       .  S
C245        C246   1.408       .  A
C246        C247   1.413       .  A
C246       Br690   1.933   1_545  S
C247       Br251   1.925       .  S
Br255       C681   1.933       .  S
C256        C257   1.423       .  A
C256        C261   1.414       .  A
C257        C258   1.418       .  A
C257       Br704   1.932       .  S
C258        C259   1.409       .  A
C258       Br273   1.928       .  S
C259        C262   1.511       .  S
C259        C260   1.414       .  A
C260        C261   1.413       .  A
C260       Br268   1.926       .  S
C261       Br272   1.927       .  S
C262        C263   1.393       .  A
C262        C267   1.388       .  A
C263        C264   1.429       .  A
C263       Br274   1.945       .  S
C264        C265   1.453       .  A
C264       Br270   1.915       .  S
C265        C266   1.484       .  A
C266        C267   1.426       .  A
C266       Br275   1.922       .  S
C267       Br271   1.948       .  S
Br269       C692   1.932   1_545  S
C276        C277   1.466       .  A
C276        C281   1.474       .  A
C277        C278   1.420       .  A
C277       Br289   1.963       .  S
C278        C279   1.392       .  A
C278       Br293   1.939       .  S
C279        C282   1.487       .  S
C279        C280   1.390       .  A
C280        C281   1.415       .  A
C280       Br288   1.954       .  S
C281       Br292   1.943       .  S
C282        C283   1.411       .  A
C282        C287   1.407       .  A
C283        C284   1.406       .  A
C283       Br294   1.922       .  S
C284        C285   1.410       .  A
C284       Br290   1.932       .  S
C285        C286   1.416       .  A
C286        C287   1.404       .  A
C286       Br295   1.924   1_455  S
C287       Br291   1.931       .  S
C296        C297   1.410       .  A
C296        C301   1.410       .  A
C297        C298   1.409       .  A
C297       Br309   1.930       .  S
C298        C299   1.414       .  A
C298       Br313   1.931       .  S
C299        C302   1.497       .  S
C299        C300   1.412       .  A
C300        C301   1.410       .  A
C300       Br308   1.927       .  S
C301       Br312   1.930       .  S
C302        C303   1.388       .  A
C302        C307   1.399       .  A
C303        C304   1.408       .  A
C303       Br314   1.951       .  S
C304        C305   1.481       .  A
C304       Br310   1.975       .  S
C305        C306   1.475       .  A
C306        C307   1.430       .  A
C306       Br315   1.950       .  S
C307       Br311   1.940       .  S
C316        C317   1.412       .  A
C316        C321   1.409       .  A
C317        C318   1.418       .  A
C317       Br329   1.927       .  S
C318        C319   1.415       .  A
C318       Br333   1.929       .  S
C319        C322   1.511       .  S
C319        C320   1.415       .  A
C320        C321   1.413       .  A
C320       Br328   1.922       .  S
C321       Br332   1.932       .  S
C322        C323   1.400       .  A
C322        C327   1.391       .  A
C323        C324   1.430       .  A
C323       Br334   1.936       .  S
C324        C325   1.471       .  A
C324       Br330   1.947       .  S
C325       C1330   1.663       .  S
C325        C326   1.460       .  A
C326        C327   1.423       .  A
C326      Br1205   1.921       .  S
C327      Br1201   1.951       .  S
Br331      C1197   1.951       .  S
Br335      C1196   1.921   1_455  S
C336        C337   1.404       .  A
C336        C341   1.405       .  A
C337        C338   1.404       .  A
C337       Br349   1.931       .  S
C338        C339   1.411       .  A
C338       Br353   1.919       .  S
C339        C342   1.486       .  S
C339        C340   1.415       .  A
C340        C341   1.404       .  A
C340       Br348   1.932       .  S
C341       Br352   1.929       .  S
C342        C343   1.395       .  A
C342        C347   1.395       .  A
C343        C344   1.406   1_545  A
C343       Br354   1.929   1_545  S
C344        C345   1.437   1_565  A
C344       Br785   1.942       .  S
C345        C346   1.477       .  A
C346        C347   1.429       .  A
C346       Br355   1.921       .  S
C347       Br351   1.959       .  S
Br350       C779   1.942       .  S
C356        C895   1.643   1_545  S
C356        C357   1.445       .  A
C356        C361   1.466       .  A
C357        C358   1.419       .  A
C357       Br369   1.919       .  S
C358        C359   1.396       .  A
C358       Br373   1.937       .  S
C359        C362   1.505       .  S
C359        C360   1.396       .  A
C360        C361   1.423       .  A
C360       Br368   1.939       .  S
C361       Br807   1.925   1_545  S
C362        C363   1.409       .  A
C362        C367   1.413       .  A
C363        C364   1.419       .  A
C363       Br374   1.928       .  S
C364        C365   1.424       .  A
C364       Br370   1.931       .  S
C365        C366   1.409       .  A
C366        C367   1.403       .  A
C366       Br375   1.926       .  S
C367       Br371   1.915       .  S
Br372       C796   1.927       .  S
C376        C377   1.458       .  A
C376        C381   1.460       .  A
C377        C378   1.429       .  A
C377       Br389   1.905       .  S
C378        C379   1.395       .  A
C378       Br393   1.953       .  S
C379        C382   1.487       .  S
C379        C380   1.390       .  A
C380        C381   1.402       .  A
C380       Br388   1.932       .  S
C381       Br392   1.940       .  S
C382        C383   1.415       .  A
C382        C387   1.408       .  A
C383        C384   1.406       .  A
C383       Br394   1.932       .  S
C384        C385   1.407       .  A
C384       Br390   1.933       .  S
C385        C386   1.408       .  A
C386        C387   1.407       .  A
C386       Br395   1.928       .  S
C387       Br391   1.925       .  S
C396        C397   1.471       .  A
C396        C401   1.467       .  A
C397        C398   1.434       .  A
C397       Br409   1.919       .  S
C398        C399   1.399       .  A
C398       Br413   1.946       .  S
C399        C402   1.506       .  S
C399        C400   1.392       .  A
C400        C401   1.414       .  A
C400       Br408   1.936       .  S
C401       Br412   1.950       .  S
C402        C407   1.409       .  A
C402       C1273   1.408   1_455  A
C403        C404   1.419       .  A
C403       C1272   1.408       .  A
C403       Br414   1.929       .  S
C404        C405   1.427       .  A
C404       Br410   1.933       .  S
C405        C406   1.421       .  A
C406       C1277   1.411       .  A
C406       Br415   1.926       .  S
C407       C1276   1.411   1_455  A
C407       Br411   1.930       .  S
C416        C417   1.473       .  A
C416        C421   1.458       .  A
C417        C418   1.427       .  A
C417       Br429   1.957       .  S
C418        C419   1.401       .  A
C418       Br433   1.940       .  S
C419        C422   1.513       .  S
C419        C420   1.399       .  A
C420        C421   1.423       .  A
C420       Br428   1.947       .  S
C421       Br432   1.919       .  S
C422        C427   1.411       .  A
C422        C858   1.417       .  A
C423        C424   1.419       .  A
C423        C857   1.416   1_545  A
C423       Br434   1.929       .  S
C424        C425   1.417       .  A
C424       Br430   1.930       .  S
C425        C426   1.419       .  A
C426        C862   1.409   1_545  A
C426       Br435   1.932       .  S
C427        C861   1.411       .  A
C427       Br431   1.929       .  S
O436        C452   1.279       .  A
O436       Zn442   2.076       .  S
C437        O453   1.282       .  A
C437        O450   1.273       .  A
C437        C800   1.506       .  S
O438        C451   1.277       .  A
O438       Cd445   2.087       .  S
O439        C457   1.273       .  A
O439       Cd448   2.071       .  S
O440        C454   1.273       .  A
O440       Cd444   2.058       .  S
O441        C452   1.273       .  A
O441       Cd444   2.081       .  S
Zn442       O453   2.082       .  S
Zn442       O455   2.060       .  S
Zn442       O447   1.953       .  S
O443        C454   1.273       .  A
O443       Cd448   2.064       .  S
Cd444       O446   2.050       .  S
Cd444       O447   2.008       .  S
Cd445       O449   2.081       .  S
Cd445       O458   2.127       .  S
Cd445       O447   2.022       .  S
O446        C456   1.272       .  A
O447       Cd448   2.000       .  S
Cd448       O450   2.054       .  S
O449        C456   1.277       .  A
C451        O455   1.281       .  A
C451        C840   1.514       .  S
C452        C751   1.493       .  S
C454        C771   1.465       .  S
C456        C820   1.467       .  S
C457        O458   1.280       .  A
C457        C860   1.506       .  S
C459        C485   1.831       .  S
C459        C811   1.659       .  S
C459        C831   1.670       .  S
C459        C851   1.631       .  S
C460        C509   1.812   1_656  S
C460       C1195   1.663       .  S
C460        C780   1.673   1_655  S
C460       C1661   1.642       .  S
O461        C477   1.273       .  A
C462        O478   1.268   1_455  A
C462        O475   1.280       .  A
C462        C720   1.483       .  S
O463        C476   1.280       .  A
O464        C482   1.281       .  A
O464       Cd473   2.115       .  S
O465        C479   1.278       .  A
O465      Cd1339   2.086   1_455  S
O466        C477   1.280       .  A
O466       Cd469   2.122       .  S
Zn467      O1348   1.985       .  S
Zn467       O480   2.014       .  S
O468        C479   1.276   1_545  A
Cd469      O1335   2.086       .  S
Cd469       O471   2.102       .  S
Cd469       O472   2.007       .  S
Cd470       O474   2.081       .  S
Cd470       O918   2.098   1_565  S
Cd470       O472   2.012       .  S
O471        C481   1.282       .  A
O472       Cd908   2.015   1_565  S
Cd473       O475   2.096       .  S
Cd473       O907   2.014       .  S
O474        C481   1.277       .  A
C476        O480   1.274       .  A
C476        C680   1.489       .  S
C477        C691   1.507       .  S
O478      Zn1337   1.985       .  S
C479        C731   1.482       .  S
C481        C660   1.491       .  S
C482        O483   1.277       .  A
C482        C631   1.496       .  S
O483       Cd905   2.098       .  S
C484        C510   1.796       .  S
C484        C640   1.667       .  S
C484        C651   1.634       .  S
C484        C671   1.655       .  S
C485        C700   1.678       .  S
C485        C711   1.615       .  S
C485        C740   1.660       .  S
O486        C502   1.276       .  A
O486       Zn492   2.042       .  S
C487        O503   1.276       .  A
C487        O500   1.273       .  A
C487        C560   1.480       .  S
O488        C501   1.275       .  A
O488       Cd495   2.077       .  S
O489        C507   1.272       .  A
O489       Cd498   2.059       .  S
O490        C504   1.280       .  A
O490       Cd494   2.098       .  S
O491        C502   1.279       .  A
O491       Cd494   2.107       .  S
Zn492       O503   2.024       .  S
Zn492       O505   2.036       .  S
Zn492       O497   1.950       .  S
O493        C504   1.268       .  A
O493       Cd498   2.049       .  S
Cd494       O496   2.091       .  S
Cd494       O497   2.007       .  S
Cd495       O499   2.089       .  S
Cd495       O508   2.106       .  S
Cd495       O497   2.009       .  S
O496        C506   1.278       .  A
O497       Cd498   1.999       .  S
Cd498       O500   2.064       .  S
O499        C506   1.278       .  A
C501        O505   1.276       .  A
C501        C591   1.478       .  S
C502        C520   1.490       .  S
C504        C540   1.497       .  S
C506        C580   1.504       .  S
C507        O508   1.278       .  A
C507        C611   1.482       .  S
C509        C946   1.662   1_455  S
C509        C531   1.669       .  S
C510        C571   1.644       .  S
C510        C600   1.667       .  S
C510        C620   1.678       .  S
C511        C944   1.662   1_565  S
C511        C512   1.468   1_565  A
C511        C516   1.480       .  A
C512        C513   1.428   1_545  A
C513        C514   1.390       .  A
C514        C517   1.509       .  S
C514        C515   1.392       .  A
C515        C516   1.427       .  A
C515       Br523   1.948       .  S
C516       Br527   1.942       .  S
C517        C518   1.415       .  A
C517        C522   1.412       .  A
C518        C519   1.414       .  A
C518       Br529   1.925       .  S
C519        C520   1.410       .  A
C519       Br525   1.930       .  S
C520        C521   1.410       .  A
C521        C522   1.414       .  A
C521       Br530   1.927       .  S
C522       Br526   1.926       .  S
C531        C532   1.460       .  A
C531        C536   1.450       .  A
C532        C533   1.432       .  A
C532       Br544   1.902   1_554  S
C533        C534   1.397       .  A
C533       Br548   1.950       .  S
C534        C537   1.493       .  S
C534        C535   1.392       .  A
C535        C536   1.403       .  A
C535       Br543   1.929       .  S
C536      Br1417   1.925       .  S
C537        C538   1.411       .  A
C537        C542   1.406       .  A
C538        C539   1.408       .  A
C538       Br549   1.929       .  S
C539        C540   1.417       .  A
C539       Br545   1.937       .  S
C540        C541   1.425       .  A
C541        C542   1.411       .  A
C541       Br550   1.936       .  S
C542       Br546   1.929       .  S
Br547      C1406   1.925       .  S
C551        C552   1.452       .  A
C551        C556   1.467       .  A
C552        C553   1.426       .  A
C552       Br564   1.882   1_565  S
C553        C554   1.394       .  A
C553       Br568   1.943       .  S
C554        C557   1.498       .  S
C554        C555   1.394       .  A
C555        C556   1.417       .  A
C555       Br563   1.940       .  S
C556      Br1437   1.951   1_455  S
C557        C558   1.412       .  A
C557        C562   1.413       .  A
C558        C559   1.413       .  A
C558       Br569   1.925       .  S
C559        C560   1.413       .  A
C559       Br565   1.929       .  S
C560        C561   1.407       .  A
C561        C562   1.402       .  A
C561       Br570   1.935       .  S
C562       Br566   1.920       .  S
Br567      C1426   1.951       .  S
C571        C572   1.464       .  A
C571        C576   1.478       .  A
C572        C573   1.426       .  A
C572       Br584   1.909       .  S
C573        C574   1.391       .  A
C573       Br588   1.950       .  S
C574        C577   1.503       .  S
C574        C575   1.390       .  A
C575        C576   1.424       .  A
C575       Br583   1.946       .  S
C576       Br587   1.946       .  S
C577        C578   1.410       .  A
C577        C582   1.408       .  A
C578        C579   1.414       .  A
C578       Br589   1.930       .  S
C579        C580   1.422       .  A
C579       Br585   1.936       .  S
C580        C581   1.422       .  A
C581        C582   1.412       .  A
C581       Br590   1.934       .  S
C582       Br586   1.929       .  S
C591        C592   1.405       .  A
C591        C596   1.408       .  A
C592        C593   1.407       .  A
C592       Br604   1.934       .  S
C593       Br608   1.928   1_565  S
C594        C597   1.499       .  S
C595        C596   1.413   1_545  A
C596       Br607   1.926       .  S
C597        C598   1.408       .  A
C597        C602   1.401       .  A
C598        C599   1.423       .  A
C599        C600   1.444       .  A
C599       Br605   1.933       .  S
C600        C601   1.443       .  A
C601        C602   1.412       .  A
C601       Br610   1.930       .  S
C602       Br606   1.931       .  S
C611        C612   1.409       .  A
C611        C616   1.408       .  A
C612        C613   1.411   1_455  A
C612       Br624   1.931       .  S
C613       C1484   1.413       .  A
C613      Br1498   1.924       .  S
C614        C617   1.504       .  S
C614       C1483   1.413       .  A
C614       C1485   1.415       .  A
C615       C1484   1.415   1_455  A
C615        C616   1.413       .  A
C615      Br1493   1.929   1_455  S
C616       Br627   1.929       .  S
C617        C618   1.392       .  A
C617        C622   1.387       .  A
C618        C619   1.430       .  A
C618       Br629   1.948       .  S
C619        C620   1.487       .  A
C619       Br625   1.952       .  S
C620        C621   1.466       .  A
C621        C622   1.422       .  A
C621       Br630   1.900       .  S
C622       Br626   1.950       .  S
Br623      C1485   1.929       .  S
Br628      C1483   1.924       .  S
C631        C632   1.414       .  A
C631        C636   1.407       .  A
C632        C633   1.419       .  A
C632       Br644   1.927       .  S
C633        C634   1.413       .  A
C633       Br648   1.925       .  S
C634        C637   1.511       .  S
C634        C635   1.419       .  A
C635        C636   1.414       .  A
C635       Br643   1.928       .  S
C636       Br647   1.930       .  S
C637        C638   1.396       .  A
C637        C642   1.410       .  A
C638        C639   1.414       .  A
C638       Br649   1.940       .  S
C639        C640   1.461       .  A
C639       Br645   1.928       .  S
C640        C641   1.444       .  A
C641        C642   1.429       .  A
C641       Br650   1.932       .  S
C642       Br646   1.932       .  S
C651        C652   1.450       .  A
C651        C656   1.467       .  A
C652        C653   1.422       .  A
C652       Br664   1.917       .  S
C653        C654   1.395       .  A
C653       Br668   1.943       .  S
C654        C657   1.501       .  S
C654        C655   1.395       .  A
C655        C656   1.420       .  A
C655       Br663   1.938       .  S
C656       Br667   1.932       .  S
C657        C658   1.410       .  A
C657        C662   1.414       .  A
C658        C659   1.415       .  A
C658       Br669   1.928       .  S
C659        C660   1.416       .  A
C659       Br665   1.928       .  S
C660        C661   1.409       .  A
C661        C662   1.407       .  A
C661       Br670   1.928       .  S
C662       Br666   1.922       .  S
C671        C672   1.462       .  A
C671        C676   1.447       .  A
C672        C673   1.430       .  A
C672       Br684   1.912       .  S
C673        C674   1.403       .  A
C673       Br688   1.943       .  S
C674        C677   1.507       .  S
C674        C675   1.400       .  A
C675        C676   1.411       .  A
C675       Br683   1.941       .  S
C676       Br687   1.926       .  S
C677        C678   1.412       .  A
C677        C682   1.420       .  A
C678        C679   1.410       .  A
C678       Br689   1.929       .  S
C679        C680   1.412       .  A
C679       Br685   1.923       .  S
C680        C681   1.408       .  A
C681        C682   1.412       .  A
C682       Br686   1.925       .  S
C691        C692   1.422       .  A
C691        C696   1.414       .  A
C692        C693   1.418       .  A
C693        C694   1.410       .  A
C693       Br708   1.928       .  S
C694        C697   1.511       .  S
C694        C695   1.415       .  A
C695        C696   1.413       .  A
C695       Br703   1.926       .  S
C696       Br707   1.928       .  S
C697        C698   1.394       .  A
C697        C702   1.388       .  A
C698        C699   1.429       .  A
C698       Br709   1.945       .  S
C699        C700   1.453       .  A
C699       Br705   1.915       .  S
C700        C701   1.483       .  A
C701        C702   1.426       .  A
C701       Br710   1.920       .  S
C702       Br706   1.947       .  S
C711        C712   1.466       .  A
C711        C716   1.473       .  A
C712        C713   1.419       .  A
C712       Br724   1.963       .  S
C713        C714   1.391       .  A
C713       Br728   1.939       .  S
C714        C717   1.486       .  S
C714        C715   1.391       .  A
C715        C716   1.414       .  A
C715       Br723   1.952       .  S
C716       Br727   1.945       .  S
C717        C718   1.410       .  A
C717        C722   1.406       .  A
C718        C719   1.406       .  A
C718       Br729   1.923       .  S
C719        C720   1.410       .  A
C719       Br725   1.932       .  S
C720        C721   1.416       .  A
C721        C722   1.404       .  A
C721       Br730   1.924   1_455  S
C722       Br726   1.931       .  S
C731        C732   1.410       .  A
C731        C736   1.410       .  A
C732        C733   1.409       .  A
C732       Br744   1.929       .  S
C733        C734   1.414       .  A
C733       Br748   1.932       .  S
C734        C737   1.497       .  S
C734        C735   1.413       .  A
C735        C736   1.411       .  A
C735       Br743   1.927       .  S
C736       Br747   1.930       .  S
C737        C738   1.388       .  A
C737        C742   1.399       .  A
C738        C739   1.407       .  A
C738       Br749   1.950       .  S
C739        C740   1.479       .  A
C739       Br745   1.974       .  S
C740        C741   1.474       .  A
C741        C742   1.430       .  A
C741       Br750   1.949       .  S
C742       Br746   1.940       .  S
C751        C752   1.412       .  A
C751        C756   1.409       .  A
C752        C753   1.418       .  A
C752       Br764   1.926       .  S
C753        C754   1.415       .  A
C753       Br768   1.929       .  S
C754        C757   1.511       .  S
C754        C755   1.415       .  A
C755        C756   1.413       .  A
C755       Br763   1.921       .  S
C756       Br767   1.931       .  S
C757        C758   1.401       .  A
C757        C762   1.390       .  A
C758        C759   1.431       .  A
C758       Br769   1.935       .  S
C759        C760   1.471       .  A
C759       Br765   1.948       .  S
C760        C895   1.664       .  S
C760        C761   1.460       .  A
C761        C762   1.422       .  A
C761      Br1640   1.920       .  S
C762      Br1636   1.952       .  S
Br766      C1632   1.952       .  S
Br770      C1631   1.920   1_455  S
C771        C772   1.405       .  A
C771        C776   1.404       .  A
C772        C773   1.405       .  A
C772       Br784   1.931       .  S
C773        C774   1.412       .  A
C773       Br788   1.920       .  S
C774        C777   1.487       .  S
C774        C775   1.416       .  A
C775        C776   1.403       .  A
C775       Br783   1.933       .  S
C776       Br787   1.929       .  S
C777        C778   1.395       .  A
C777        C782   1.395       .  A
C778        C779   1.407       .  A
C778       Br789   1.928       .  S
C779        C780   1.437       .  A
C780        C781   1.479       .  A
C781        C782   1.429       .  A
C781       Br790   1.922       .  S
C782       Br786   1.961       .  S
C791       C1330   1.642       .  S
C791        C792   1.444       .  A
C791        C796   1.468       .  A
C792        C793   1.419       .  A
C792       Br804   1.918       .  S
C793        C794   1.397       .  A
C793       Br808   1.934       .  S
C794        C797   1.508       .  S
C794        C795   1.397       .  A
C795        C796   1.425       .  A
C795       Br803   1.939       .  S
C797        C798   1.408       .  A
C797        C802   1.414       .  A
C798        C799   1.419       .  A
C798       Br809   1.929       .  S
C799        C800   1.426       .  A
C799       Br805   1.934       .  S
C800        C801   1.413       .  A
C801        C802   1.407       .  A
C801       Br810   1.930       .  S
C802       Br806   1.916       .  S
C811        C812   1.458       .  A
C811        C816   1.460       .  A
C812        C813   1.427       .  A
C812       Br824   1.906       .  S
C813        C814   1.394       .  A
C813       Br828   1.954       .  S
C814        C817   1.482       .  S
C814        C815   1.390       .  A
C815        C816   1.401       .  A
C815       Br823   1.933       .  S
C816       Br827   1.942       .  S
C817        C818   1.414       .  A
C817        C822   1.407       .  A
C818        C819   1.403       .  A
C818       Br829   1.932       .  S
C819        C820   1.407       .  A
C819       Br825   1.933       .  S
C820        C821   1.408       .  A
C821        C822   1.406       .  A
C821       Br830   1.928       .  S
C822       Br826   1.926       .  S
C831        C832   1.472       .  A
C831        C836   1.466       .  A
C832        C833   1.434       .  A
C832       Br844   1.918       .  S
C833        C834   1.398       .  A
C833       Br848   1.948       .  S
C834        C837   1.503       .  S
C834        C835   1.392       .  A
C835        C836   1.413       .  A
C835       Br843   1.936       .  S
C836       Br847   1.949       .  S
C837       C1708   1.407   1_455  A
C837        C842   1.408       .  A
C838       C1707   1.407       .  A
C838        C839   1.418       .  A
C838       Br849   1.930       .  S
C839        C840   1.428       .  A
C839       Br845   1.935       .  S
C840        C841   1.423       .  A
C841       C1712   1.410       .  A
C841       Br850   1.928       .  S
C842       C1711   1.410   1_455  A
C842       Br846   1.932       .  S
C851        C852   1.473       .  A
C851        C856   1.457       .  A
C852        C853   1.426       .  A
C852       Br864   1.957       .  S
C853        C854   1.399       .  A
C853       Br868   1.940       .  S
C854        C857   1.509       .  S
C854        C855   1.398       .  A
C855        C856   1.422       .  A
C855       Br863   1.947       .  S
C856       Br867   1.918       .  S
C857        C862   1.410       .  A
C858        C859   1.421       .  A
C858       Br869   1.930       .  S
C859        C860   1.417       .  A
C859       Br865   1.929       .  S
C860        C861   1.418       .  A
C861       Br870   1.930       .  S
C862       Br866   1.928       .  S
O871        C887   1.278       .  A
O871       Zn877   2.066       .  S
C872        O888   1.283       .  A
C872        O885   1.271       .  A
C872       C1235   1.501       .  S
O873        C886   1.278       .  A
O873       Cd880   2.096       .  S
O874        C892   1.272       .  A
O874       Cd883   2.065       .  S
O875        C889   1.273       .  A
O875       Cd879   2.059       .  S
O876        C887   1.274       .  A
O876       Cd879   2.086       .  S
Zn877       O888   2.079       .  S
Zn877       O890   2.059       .  S
Zn877       O882   1.951       .  S
O878        C889   1.272       .  A
O878       Cd883   2.058       .  S
Cd879       O881   2.057       .  S
Cd879       O882   2.010       .  S
Cd880       O884   2.084       .  S
Cd880       O893   2.124       .  S
Cd880       O882   2.021       .  S
O881        C891   1.273       .  A
O882       Cd883   2.001       .  S
Cd883       O885   2.053       .  S
O884        C891   1.277       .  A
C886        O890   1.282       .  A
C886       C1275   1.514       .  S
C887       C1186   1.493       .  S
C889       C1206   1.464       .  S
C891       C1255   1.470       .  S
C892        O893   1.280       .  A
C892       C1295   1.503       .  S
C894        C920   1.835       .  S
C894       C1246   1.662       .  S
C894       C1266   1.671       .  S
C894       C1286   1.631       .  S
C895        C944   1.810   1_566  S
C895       C1215   1.672   1_565  S
O896        C912   1.273       .  A
O896      Zn1337   2.026       .  S
C897        O913   1.268       .  A
C897        O910   1.280       .  A
C897       C1155   1.484       .  S
O898        C911   1.280       .  A
O898      Cd1340   2.105   1_645  S
O899        C917   1.281       .  A
O899       Cd908   2.114       .  S
O900        C914   1.278       .  A
O901        C912   1.281       .  A
O901       Cd904   2.122       .  S
Zn902      O1331   2.024   1_545  S
Zn902       O915   2.015       .  S
Zn902      O1342   1.949   1_645  S
O903        C914   1.275       .  A
O903      Cd1343   2.079       .  S
Cd904       O906   2.101       .  S
Cd904       O907   2.006   1_655  S
Cd905      O1333   2.103   1_455  S
Cd905       O909   2.083   1_455  S
Cd905       O907   2.012       .  S
O906        C916   1.282       .  A
O907      Zn1337   1.950   1_455  S
Cd908      O1338   2.081       .  S
Cd908       O910   2.097       .  S
O909        C916   1.278       .  A
C911        O915   1.274       .  A
C911       C1115   1.489       .  S
C912       C1126   1.509       .  S
C914       C1166   1.481       .  S
C916       C1095   1.492       .  S
C917        O918   1.277       .  A
C917       C1066   1.495       .  S
C919        C945   1.796       .  S
C919       C1075   1.666       .  S
C919       C1086   1.635       .  S
C919       C1106   1.656       .  S
C920       C1135   1.679       .  S
C920       C1146   1.616       .  S
C920       C1175   1.661       .  S
O921        C937   1.276       .  A
O921       Zn927   2.043       .  S
C922        O938   1.276       .  A
C922        O935   1.273       .  A
C922        C995   1.481       .  S
O923        C936   1.275       .  A
O923       Cd930   2.075       .  S
O924        C942   1.271       .  A
O924       Cd933   2.058       .  S
O925        C939   1.280       .  A
O925       Cd929   2.093       .  S
O926        C937   1.279       .  A
O926       Cd929   2.104       .  S
Zn927       O938   2.026       .  S
Zn927       O940   2.035       .  S
Zn927       O932   1.951       .  S
O928        C939   1.268       .  A
O928       Cd933   2.048       .  S
Cd929       O931   2.091       .  S
Cd929       O932   2.006       .  S
Cd930       O934   2.091       .  S
Cd930       O943   2.101       .  S
Cd930       O932   2.010       .  S
O931        C941   1.278       .  A
O932       Cd933   1.999       .  S
Cd933       O935   2.066       .  S
O934        C941   1.278       .  A
C936        O940   1.276       .  A
C936       C1026   1.476       .  S
C937        C955   1.489       .  S
C939        C975   1.495       .  S
C941       C1015   1.503       .  S
C942        O943   1.278       .  A
C942       C1046   1.480       .  S
C944        C966   1.670       .  S
C944       C1421   1.643   1_545  S
C945       C1006   1.644       .  S
C945       C1035   1.668       .  S
C945       C1055   1.677       .  S
C946        C947   1.468       .  A
C946        C951   1.481       .  A
C947        C948   1.428       .  A
C947      Br1394   1.909       .  S
C948        C949   1.390       .  A
C948      Br1398   1.951       .  S
C949        C952   1.509       .  S
C949        C950   1.392       .  A
C950        C951   1.428       .  A
C950       Br958   1.949       .  S
C951       Br962   1.942       .  S
C952        C953   1.416       .  A
C952        C957   1.412       .  A
C953        C954   1.414       .  A
C953       Br964   1.925       .  S
C954        C955   1.409       .  A
C954       Br960   1.930       .  S
C955        C956   1.410       .  A
C956        C957   1.413       .  A
C956       Br965   1.927       .  S
C957       Br961   1.926       .  S
Br959      C1382   1.909       .  S
Br963      C1383   1.950   1_545  S
C966        C967   1.461       .  A
C966        C971   1.448       .  A
C967        C968   1.434       .  A
C967       Br979   1.905   1_554  S
C968        C969   1.399       .  A
C968       Br983   1.950       .  S
C969        C972   1.494       .  S
C969        C970   1.393       .  A
C970        C971   1.403       .  A
C970       Br978   1.929       .  S
C972        C973   1.412       .  A
C972        C977   1.407       .  A
C973        C974   1.408       .  A
C973       Br984   1.928       .  S
C974        C975   1.416       .  A
C974       Br980   1.937       .  S
C975        C976   1.424       .  A
C976        C977   1.410       .  A
C976       Br985   1.935       .  S
C977       Br981   1.928       .  S
C986       C1379   1.645       .  S
C986        C987   1.453       .  A
C986        C991   1.468       .  A
C987        C988   1.427       .  A
C987       Br999   1.885       .  S
C988        C989   1.395       .  A
C988      Br1003   1.944       .  S
C989        C992   1.499       .  S
C989        C990   1.394       .  A
C990        C991   1.417       .  A
C990       Br998   1.941       .  S
C992        C993   1.412       .  A
C992        C997   1.413       .  A
C993        C994   1.413       .  A
C993      Br1004   1.925       .  S
C994        C995   1.413       .  A
C994      Br1000   1.929       .  S
C995        C996   1.408       .  A
C996        C997   1.404       .  A
C996      Br1005   1.934       .  S
C997      Br1001   1.921       .  S
C1006      C1007   1.463       .  A
C1006      C1011   1.478       .  A
C1007      C1008   1.427       .  A
C1007     Br1019   1.909       .  S
C1008      C1009   1.392       .  A
C1008     Br1023   1.950       .  S
C1009      C1012   1.504       .  S
C1009      C1010   1.390       .  A
C1010      C1011   1.424       .  A
C1010     Br1018   1.945       .  S
C1011     Br1022   1.945       .  S
C1012      C1013   1.411       .  A
C1012      C1017   1.409       .  A
C1013      C1014   1.414       .  A
C1013     Br1024   1.930       .  S
C1014      C1015   1.421       .  A
C1014     Br1020   1.935       .  S
C1015      C1016   1.421       .  A
C1016      C1017   1.413       .  A
C1016     Br1025   1.933       .  S
C1017     Br1021   1.929       .  S
C1026      C1027   1.404       .  A
C1026      C1031   1.408       .  A
C1027      C1028   1.406       .  A
C1027     Br1039   1.934       .  S
C1028      C1464   1.418       .  A
C1028     Br1043   1.928       .  S
C1029      C1032   1.500       .  S
C1029      C1463   1.419   1_545  A
C1029      C1465   1.413       .  A
C1030      C1464   1.413       .  A
C1030      C1031   1.412       .  A
C1030     Br1473   1.924       .  S
C1031     Br1042   1.926       .  S
C1032      C1033   1.408       .  A
C1032      C1037   1.401       .  A
C1033      C1034   1.424       .  A
C1033     Br1479   1.934       .  S
C1034      C1035   1.444       .  A
C1034     Br1040   1.932       .  S
C1035      C1036   1.443       .  A
C1036      C1037   1.412       .  A
C1036     Br1045   1.929       .  S
C1037     Br1041   1.931       .  S
Br1038     C1465   1.923       .  S
Br1044     C1468   1.934       .  S
C1046      C1047   1.409       .  A
C1046      C1051   1.408       .  A
C1047      C1048   1.411       .  A
C1047     Br1059   1.932       .  S
C1049      C1052   1.503       .  S
C1050      C1051   1.412       .  A
C1051     Br1062   1.929       .  S
C1052      C1053   1.391       .  A
C1052      C1057   1.386       .  A
C1053      C1054   1.430       .  A
C1053     Br1064   1.948       .  S
C1054      C1055   1.487       .  A
C1054     Br1060   1.952       .  S
C1055      C1056   1.466       .  A
C1056      C1057   1.422       .  A
C1056     Br1065   1.899       .  S
C1057     Br1061   1.950       .  S
C1066      C1067   1.414       .  A
C1066      C1071   1.407       .  A
C1067      C1068   1.419       .  A
C1067     Br1079   1.927   1_545  S
C1068      C1069   1.413       .  A
C1068     Br1083   1.925       .  S
C1069      C1072   1.510       .  S
C1069      C1070   1.419       .  A
C1070      C1071   1.414       .  A
C1070     Br1078   1.929       .  S
C1071     Br1082   1.930       .  S
C1072      C1073   1.395       .  A
C1072      C1077   1.410       .  A
C1073      C1074   1.413       .  A
C1073     Br1084   1.940       .  S
C1074      C1075   1.461       .  A
C1074     Br1080   1.929       .  S
C1075      C1076   1.445       .  A
C1076      C1077   1.428       .  A
C1076     Br1085   1.932       .  S
C1077     Br1081   1.932       .  S
C1086      C1087   1.451       .  A
C1086      C1091   1.467       .  A
C1087      C1088   1.422       .  A
C1087     Br1099   1.916       .  S
C1088      C1089   1.395       .  A
C1088     Br1103   1.944       .  S
C1089      C1092   1.502       .  S
C1089      C1090   1.395       .  A
C1090      C1091   1.421       .  A
C1090     Br1098   1.938       .  S
C1091     Br1102   1.932       .  S
C1092      C1093   1.410       .  A
C1092      C1097   1.413       .  A
C1093      C1094   1.415       .  A
C1093     Br1104   1.928       .  S
C1094      C1095   1.416       .  A
C1094     Br1100   1.928   1_655  S
C1095      C1096   1.409       .  A
C1096      C1097   1.407       .  A
C1096     Br1105   1.928       .  S
C1097     Br1101   1.922       .  S
C1106      C1107   1.462       .  A
C1106      C1111   1.447       .  A
C1107      C1108   1.430       .  A
C1107     Br1119   1.913       .  S
C1108      C1109   1.403       .  A
C1108     Br1123   1.943       .  S
C1109      C1112   1.508       .  S
C1109      C1110   1.400       .  A
C1110      C1111   1.412       .  A
C1110     Br1118   1.941       .  S
C1111     Br1122   1.926       .  S
C1112      C1113   1.412       .  A
C1112      C1117   1.421       .  A
C1113      C1114   1.411       .  A
C1113     Br1124   1.928       .  S
C1114      C1115   1.412       .  A
C1114     Br1120   1.924       .  S
C1115      C1116   1.408       .  A
C1116      C1117   1.413       .  A
C1116     Br1560   1.933   1_545  S
C1117     Br1121   1.925       .  S
Br1125     C1551   1.933       .  S
C1126      C1127   1.423       .  A
C1126      C1131   1.414       .  A
C1127      C1128   1.418       .  A
C1127     Br1574   1.932       .  S
C1128      C1129   1.409       .  A
C1128     Br1143   1.928       .  S
C1129      C1132   1.511       .  S
C1129      C1130   1.414       .  A
C1130      C1131   1.413       .  A
C1130     Br1138   1.926       .  S
C1131     Br1142   1.927       .  S
C1132      C1133   1.393       .  A
C1132      C1137   1.388       .  A
C1133      C1134   1.429       .  A
C1133     Br1144   1.945       .  S
C1134      C1135   1.453       .  A
C1134     Br1140   1.915       .  S
C1135      C1136   1.484       .  A
C1136      C1137   1.426       .  A
C1136     Br1145   1.922       .  S
C1137     Br1141   1.948       .  S
Br1139     C1562   1.932   1_545  S
C1146      C1147   1.466       .  A
C1146      C1151   1.474       .  A
C1147      C1148   1.420       .  A
C1147     Br1159   1.963       .  S
C1148      C1149   1.392       .  A
C1148     Br1163   1.939       .  S
C1149      C1152   1.487       .  S
C1149      C1150   1.390       .  A
C1150      C1151   1.415       .  A
C1150     Br1158   1.954       .  S
C1151     Br1162   1.943       .  S
C1152      C1153   1.411       .  A
C1152      C1157   1.407       .  A
C1153      C1154   1.406       .  A
C1153     Br1164   1.922       .  S
C1154      C1155   1.410       .  A
C1154     Br1160   1.932       .  S
C1155      C1156   1.416       .  A
C1156      C1157   1.404       .  A
C1156     Br1165   1.924       .  S
C1157     Br1161   1.931       .  S
C1166      C1167   1.410       .  A
C1166      C1171   1.410       .  A
C1167      C1168   1.409       .  A
C1167     Br1179   1.930       .  S
C1168      C1169   1.414       .  A
C1168     Br1183   1.931       .  S
C1169      C1172   1.497       .  S
C1169      C1170   1.412       .  A
C1170      C1171   1.410       .  A
C1170     Br1178   1.927       .  S
C1171     Br1182   1.930       .  S
C1172      C1173   1.388       .  A
C1172      C1177   1.399       .  A
C1173      C1174   1.408       .  A
C1173     Br1184   1.951       .  S
C1174      C1175   1.481       .  A
C1174     Br1180   1.975       .  S
C1175      C1176   1.475       .  A
C1176      C1177   1.430       .  A
C1176     Br1185   1.950       .  S
C1177     Br1181   1.940       .  S
C1186      C1187   1.412       .  A
C1186      C1191   1.409       .  A
C1187      C1188   1.418       .  A
C1187     Br1199   1.927       .  S
C1188      C1189   1.415       .  A
C1188     Br1203   1.929       .  S
C1189      C1192   1.511       .  S
C1189      C1190   1.415       .  A
C1190      C1191   1.413       .  A
C1190     Br1198   1.922       .  S
C1191     Br1202   1.932       .  S
C1192      C1193   1.400       .  A
C1192      C1197   1.391       .  A
C1193      C1194   1.430       .  A
C1193     Br1204   1.936       .  S
C1194      C1195   1.471       .  A
C1194     Br1200   1.947       .  S
C1195      C1196   1.460       .  A
C1196      C1197   1.423       .  A
C1206      C1207   1.404       .  A
C1206      C1211   1.405       .  A
C1207      C1208   1.404       .  A
C1207     Br1219   1.931       .  S
C1208      C1209   1.411       .  A
C1208     Br1223   1.919       .  S
C1209      C1212   1.486       .  S
C1209      C1210   1.415       .  A
C1210      C1211   1.404       .  A
C1210     Br1218   1.932       .  S
C1211     Br1222   1.929       .  S
C1212      C1213   1.395       .  A
C1212      C1217   1.395       .  A
C1213      C1214   1.406   1_545  A
C1213     Br1224   1.929   1_545  S
C1214      C1215   1.437   1_565  A
C1214     Br1655   1.942       .  S
C1215      C1216   1.477       .  A
C1216      C1217   1.429       .  A
C1216     Br1225   1.921       .  S
C1217     Br1221   1.959       .  S
Br1220     C1649   1.942       .  S
C1226      C1227   1.445       .  A
C1226      C1231   1.466       .  A
C1227      C1228   1.419       .  A
C1227     Br1239   1.919   1_655  S
C1228      C1229   1.396       .  A
C1228     Br1243   1.937       .  S
C1229      C1232   1.505       .  S
C1229      C1230   1.396       .  A
C1230      C1231   1.423       .  A
C1230     Br1238   1.939       .  S
C1231     Br1677   1.925   1_545  S
C1232      C1233   1.409       .  A
C1232      C1237   1.413       .  A
C1233      C1234   1.419       .  A
C1233     Br1244   1.928       .  S
C1234      C1235   1.424       .  A
C1234     Br1240   1.931       .  S
C1235      C1236   1.409       .  A
C1236      C1237   1.403       .  A
C1236     Br1245   1.926       .  S
C1237     Br1241   1.915       .  S
Br1242     C1666   1.927       .  S
C1246      C1247   1.458       .  A
C1246      C1251   1.460       .  A
C1247      C1248   1.429       .  A
C1247     Br1259   1.905       .  S
C1248      C1249   1.395       .  A
C1248     Br1263   1.953       .  S
C1249      C1252   1.486       .  S
C1249      C1250   1.390       .  A
C1250      C1251   1.402       .  A
C1250     Br1258   1.932       .  S
C1251     Br1262   1.940       .  S
C1252      C1253   1.415       .  A
C1252      C1257   1.408       .  A
C1253      C1254   1.406       .  A
C1253     Br1264   1.932       .  S
C1254      C1255   1.407       .  A
C1254     Br1260   1.933       .  S
C1255      C1256   1.408       .  A
C1256      C1257   1.407       .  A
C1256     Br1265   1.928       .  S
C1257     Br1261   1.925       .  S
C1266      C1267   1.471       .  A
C1266      C1271   1.467       .  A
C1267      C1268   1.434       .  A
C1267     Br1279   1.919       .  S
C1268      C1269   1.399       .  A
C1268     Br1283   1.946       .  S
C1269      C1272   1.506       .  S
C1269      C1270   1.392       .  A
C1270      C1271   1.414       .  A
C1270     Br1278   1.936       .  S
C1271     Br1282   1.950       .  S
C1272      C1277   1.409       .  A
C1273      C1274   1.419       .  A
C1273     Br1284   1.929       .  S
C1274      C1275   1.427       .  A
C1274     Br1280   1.933       .  S
C1275      C1276   1.421       .  A
C1276     Br1285   1.926       .  S
C1277     Br1281   1.930       .  S
C1286      C1287   1.473       .  A
C1286      C1291   1.458       .  A
C1287      C1288   1.427       .  A
C1287     Br1299   1.957       .  S
C1288      C1289   1.401       .  A
C1288     Br1303   1.940       .  S
C1289      C1292   1.513       .  S
C1289      C1290   1.399       .  A
C1290      C1291   1.423       .  A
C1290     Br1298   1.947       .  S
C1291     Br1302   1.919       .  S
C1292      C1728   1.417       .  A
C1292      C1297   1.411       .  A
C1293      C1727   1.416   1_545  A
C1293      C1294   1.419       .  A
C1293     Br1304   1.929       .  S
C1294      C1295   1.417       .  A
C1294     Br1300   1.930       .  S
C1295      C1296   1.419       .  A
C1296      C1732   1.409   1_545  A
C1296     Br1305   1.932       .  S
C1297      C1731   1.411       .  A
C1297     Br1301   1.929       .  S
O1306      C1322   1.279       .  A
O1306     Zn1312   2.076       .  S
C1307      O1323   1.282       .  A
C1307      O1320   1.273       .  A
C1307      C1670   1.506       .  S
O1308      C1321   1.277       .  A
O1308     Cd1315   2.087       .  S
O1309      C1327   1.273       .  A
O1309     Cd1318   2.071       .  S
O1310      C1324   1.273       .  A
O1310     Cd1314   2.058       .  S
O1311      C1322   1.273       .  A
O1311     Cd1314   2.081       .  S
Zn1312     O1323   2.082       .  S
Zn1312     O1325   2.060       .  S
Zn1312     O1317   1.953       .  S
O1313      C1324   1.273       .  A
O1313     Cd1318   2.064       .  S
Cd1314     O1316   2.050       .  S
Cd1314     O1317   2.008       .  S
Cd1315     O1319   2.081       .  S
Cd1315     O1328   2.127       .  S
Cd1315     O1317   2.022       .  S
O1316      C1326   1.272       .  A
O1317     Cd1318   2.000       .  S
Cd1318     O1320   2.054       .  S
O1319      C1326   1.277       .  A
C1321      O1325   1.280       .  A
C1321      C1710   1.514       .  S
C1322      C1621   1.493       .  S
C1324      C1641   1.465       .  S
C1326      C1690   1.467       .  S
C1327      O1328   1.280       .  A
C1327      C1730   1.506       .  S
C1329      C1355   1.831       .  S
C1329      C1681   1.659       .  S
C1329      C1701   1.670       .  S
C1329      C1721   1.631       .  S
C1330      C1379   1.812   1_556  S
C1330      C1650   1.673       .  S
O1331      C1347   1.273       .  A
C1332      O1348   1.268       .  A
C1332      O1345   1.280       .  A
C1332      C1590   1.483       .  S
O1333      C1346   1.280       .  A
O1334      C1352   1.281       .  A
O1334     Cd1343   2.115       .  S
O1335      C1349   1.278       .  A
O1336      C1347   1.280       .  A
O1336     Cd1339   2.122       .  S
Zn1337     O1350   2.014       .  S
O1338      C1349   1.276   1_545  A
Cd1339     O1341   2.102       .  S
Cd1339     O1342   2.007   1_655  S
Cd1340     O1344   2.081   1_455  S
Cd1340     O1342   2.012       .  S
O1341      C1351   1.282       .  A
Cd1343     O1345   2.096       .  S
O1344      C1351   1.277       .  A
C1346      O1350   1.274       .  A
C1346      C1550   1.489       .  S
C1347      C1561   1.507       .  S
C1349      C1601   1.482       .  S
C1351      C1530   1.491       .  S
C1352      O1353   1.277       .  A
C1352      C1501   1.496       .  S
C1354      C1380   1.796       .  S
C1354      C1510   1.667       .  S
C1354      C1521   1.634       .  S
C1354      C1541   1.655       .  S
C1355      C1570   1.678       .  S
C1355      C1581   1.615       .  S
C1355      C1610   1.660       .  S
O1356      C1372   1.276       .  A
O1356     Zn1362   2.042       .  S
C1357      O1373   1.276       .  A
C1357      O1370   1.273       .  A
C1357      C1430   1.480       .  S
O1358      C1371   1.275       .  A
O1358     Cd1365   2.077       .  S
O1359      C1377   1.272       .  A
O1359     Cd1368   2.059       .  S
O1360      C1374   1.280       .  A
O1360     Cd1364   2.098       .  S
O1361      C1372   1.279       .  A
O1361     Cd1364   2.107       .  S
Zn1362     O1373   2.024       .  S
Zn1362     O1375   2.036       .  S
Zn1362     O1367   1.950       .  S
O1363      C1374   1.268       .  A
O1363     Cd1368   2.048       .  S
Cd1364     O1366   2.091       .  S
Cd1364     O1367   2.007       .  S
Cd1365     O1369   2.089       .  S
Cd1365     O1378   2.106       .  S
Cd1365     O1367   2.009       .  S
O1366      C1376   1.278       .  A
O1367     Cd1368   1.999       .  S
Cd1368     O1370   2.064       .  S
O1369      C1376   1.278       .  A
C1371      O1375   1.276       .  A
C1371      C1461   1.478       .  S
C1372      C1390   1.490       .  S
C1374      C1410   1.497       .  S
C1376      C1450   1.504       .  S
C1377      O1378   1.278       .  A
C1377      C1481   1.482       .  S
C1379      C1401   1.669       .  S
C1380      C1441   1.644       .  S
C1380      C1470   1.667       .  S
C1380      C1490   1.678       .  S
C1381      C1382   1.468   1_565  A
C1381      C1386   1.480       .  A
C1382      C1383   1.428   1_545  A
C1383      C1384   1.390       .  A
C1384      C1387   1.509       .  S
C1384      C1385   1.392       .  A
C1385      C1386   1.427       .  A
C1385     Br1393   1.948       .  S
C1386     Br1397   1.942       .  S
C1387      C1388   1.415       .  A
C1387      C1392   1.412       .  A
C1388      C1389   1.414       .  A
C1388     Br1399   1.925       .  S
C1389      C1390   1.410       .  A
C1389     Br1395   1.930       .  S
C1390      C1391   1.410       .  A
C1391      C1392   1.414       .  A
C1391     Br1400   1.927       .  S
C1392     Br1396   1.926       .  S
C1401      C1402   1.460       .  A
C1401      C1406   1.450       .  A
C1402      C1403   1.432       .  A
C1402     Br1414   1.902   1_554  S
C1403      C1404   1.397       .  A
C1403     Br1418   1.950       .  S
C1404      C1407   1.493       .  S
C1404      C1405   1.392       .  A
C1405      C1406   1.403       .  A
C1405     Br1413   1.929       .  S
C1407      C1408   1.411       .  A
C1407      C1412   1.406       .  A
C1408      C1409   1.408       .  A
C1408     Br1419   1.929       .  S
C1409      C1410   1.417       .  A
C1409     Br1415   1.937       .  S
C1410      C1411   1.425       .  A
C1411      C1412   1.411       .  A
C1411     Br1420   1.936       .  S
C1412     Br1416   1.929       .  S
C1421      C1422   1.452       .  A
C1421      C1426   1.467       .  A
C1422      C1423   1.426       .  A
C1422     Br1434   1.882   1_565  S
C1423      C1424   1.394       .  A
C1423     Br1438   1.943       .  S
C1424      C1427   1.498       .  S
C1424      C1425   1.394       .  A
C1425      C1426   1.417       .  A
C1425     Br1433   1.940       .  S
C1427      C1428   1.412       .  A
C1427      C1432   1.413       .  A
C1428      C1429   1.413       .  A
C1428     Br1439   1.925       .  S
C1429      C1430   1.413       .  A
C1429     Br1435   1.929       .  S
C1430      C1431   1.407       .  A
C1431      C1432   1.402       .  A
C1431     Br1440   1.935       .  S
C1432     Br1436   1.920       .  S
C1441      C1442   1.464       .  A
C1441      C1446   1.478       .  A
C1442      C1443   1.426       .  A
C1442     Br1454   1.909       .  S
C1443      C1444   1.391       .  A
C1443     Br1458   1.950       .  S
C1444      C1447   1.503       .  S
C1444      C1445   1.390       .  A
C1445      C1446   1.424       .  A
C1445     Br1453   1.946       .  S
C1446     Br1457   1.946       .  S
C1447      C1448   1.410       .  A
C1447      C1452   1.408       .  A
C1448      C1449   1.414       .  A
C1448     Br1459   1.930       .  S
C1449      C1450   1.422       .  A
C1449     Br1455   1.936       .  S
C1450      C1451   1.422       .  A
C1451      C1452   1.412       .  A
C1451     Br1460   1.934       .  S
C1452     Br1456   1.929       .  S
C1461      C1462   1.405       .  A
C1461      C1466   1.408       .  A
C1462      C1463   1.407       .  A
C1462     Br1474   1.934       .  S
C1463     Br1478   1.928   1_565  S
C1464      C1467   1.499       .  S
C1465      C1466   1.413   1_545  A
C1466     Br1477   1.926       .  S
C1467      C1468   1.408       .  A
C1467      C1472   1.401       .  A
C1468      C1469   1.423       .  A
C1469      C1470   1.444       .  A
C1469     Br1475   1.933       .  S
C1470      C1471   1.443       .  A
C1471      C1472   1.412       .  A
C1471     Br1480   1.930       .  S
C1472     Br1476   1.931       .  S
C1481      C1482   1.409       .  A
C1481      C1486   1.408       .  A
C1482      C1483   1.411       .  A
C1482     Br1494   1.931       .  S
C1484      C1487   1.504       .  S
C1485      C1486   1.413       .  A
C1486     Br1497   1.929       .  S
C1487      C1488   1.392       .  A
C1487      C1492   1.387       .  A
C1488      C1489   1.430       .  A
C1488     Br1499   1.948       .  S
C1489      C1490   1.487       .  A
C1489     Br1495   1.952       .  S
C1490      C1491   1.466       .  A
C1491      C1492   1.422       .  A
C1491     Br1500   1.900       .  S
C1492     Br1496   1.950       .  S
C1501      C1502   1.414       .  A
C1501      C1506   1.407       .  A
C1502      C1503   1.419       .  A
C1502     Br1514   1.927       .  S
C1503      C1504   1.413       .  A
C1503     Br1518   1.925       .  S
C1504      C1507   1.511       .  S
C1504      C1505   1.419       .  A
C1505      C1506   1.414       .  A
C1505     Br1513   1.928       .  S
C1506     Br1517   1.930       .  S
C1507      C1508   1.396       .  A
C1507      C1512   1.410       .  A
C1508      C1509   1.414       .  A
C1508     Br1519   1.940       .  S
C1509      C1510   1.461       .  A
C1509     Br1515   1.928       .  S
C1510      C1511   1.444       .  A
C1511      C1512   1.429       .  A
C1511     Br1520   1.932       .  S
C1512     Br1516   1.932       .  S
C1521      C1522   1.450       .  A
C1521      C1526   1.467       .  A
C1522      C1523   1.422       .  A
C1522     Br1534   1.917       .  S
C1523      C1524   1.395       .  A
C1523     Br1538   1.943       .  S
C1524      C1527   1.501       .  S
C1524      C1525   1.395       .  A
C1525      C1526   1.420       .  A
C1525     Br1533   1.938       .  S
C1526     Br1537   1.932       .  S
C1527      C1528   1.410       .  A
C1527      C1532   1.414       .  A
C1528      C1529   1.415       .  A
C1528     Br1539   1.928       .  S
C1529      C1530   1.416       .  A
C1529     Br1535   1.928   1_655  S
C1530      C1531   1.409       .  A
C1531      C1532   1.407       .  A
C1531     Br1540   1.928       .  S
C1532     Br1536   1.922       .  S
C1541      C1542   1.462       .  A
C1541      C1546   1.447       .  A
C1542      C1543   1.430       .  A
C1542     Br1554   1.912       .  S
C1543      C1544   1.403       .  A
C1543     Br1558   1.943       .  S
C1544      C1547   1.507       .  S
C1544      C1545   1.400       .  A
C1545      C1546   1.411       .  A
C1545     Br1553   1.941       .  S
C1546     Br1557   1.926       .  S
C1547      C1548   1.412       .  A
C1547      C1552   1.420       .  A
C1548      C1549   1.410       .  A
C1548     Br1559   1.929       .  S
C1549      C1550   1.412       .  A
C1549     Br1555   1.923       .  S
C1550      C1551   1.408       .  A
C1551      C1552   1.412       .  A
C1552     Br1556   1.925       .  S
C1561      C1562   1.422       .  A
C1561      C1566   1.414       .  A
C1562      C1563   1.418       .  A
C1563      C1564   1.410       .  A
C1563     Br1578   1.928       .  S
C1564      C1567   1.511       .  S
C1564      C1565   1.415       .  A
C1565      C1566   1.413       .  A
C1565     Br1573   1.926       .  S
C1566     Br1577   1.928       .  S
C1567      C1568   1.394       .  A
C1567      C1572   1.388       .  A
C1568      C1569   1.429       .  A
C1568     Br1579   1.945       .  S
C1569      C1570   1.453       .  A
C1569     Br1575   1.915       .  S
C1570      C1571   1.483       .  A
C1571      C1572   1.426       .  A
C1571     Br1580   1.920       .  S
C1572     Br1576   1.947       .  S
C1581      C1582   1.466       .  A
C1581      C1586   1.473       .  A
C1582      C1583   1.419       .  A
C1582     Br1594   1.963       .  S
C1583      C1584   1.391       .  A
C1583     Br1598   1.939       .  S
C1584      C1587   1.486       .  S
C1584      C1585   1.391       .  A
C1585      C1586   1.414       .  A
C1585     Br1593   1.952       .  S
C1586     Br1597   1.945       .  S
C1587      C1588   1.410       .  A
C1587      C1592   1.406       .  A
C1588      C1589   1.406       .  A
C1588     Br1599   1.923       .  S
C1589      C1590   1.410       .  A
C1589     Br1595   1.932       .  S
C1590      C1591   1.416       .  A
C1591      C1592   1.404       .  A
C1591     Br1600   1.924       .  S
C1592     Br1596   1.931       .  S
C1601      C1602   1.410       .  A
C1601      C1606   1.410       .  A
C1602      C1603   1.409       .  A
C1602     Br1614   1.929       .  S
C1603      C1604   1.414       .  A
C1603     Br1618   1.932       .  S
C1604      C1607   1.497       .  S
C1604      C1605   1.413       .  A
C1605      C1606   1.411       .  A
C1605     Br1613   1.927       .  S
C1606     Br1617   1.930       .  S
C1607      C1608   1.388       .  A
C1607      C1612   1.400       .  A
C1608      C1609   1.407       .  A
C1608     Br1619   1.950       .  S
C1609      C1610   1.479       .  A
C1609     Br1615   1.974       .  S
C1610      C1611   1.474       .  A
C1611      C1612   1.430       .  A
C1611     Br1620   1.949       .  S
C1612     Br1616   1.940       .  S
C1621      C1622   1.412       .  A
C1621      C1626   1.409       .  A
C1622      C1623   1.418       .  A
C1622     Br1634   1.926       .  S
C1623      C1624   1.415       .  A
C1623     Br1638   1.929       .  S
C1624      C1627   1.511       .  S
C1624      C1625   1.415       .  A
C1625      C1626   1.413       .  A
C1625     Br1633   1.921       .  S
C1626     Br1637   1.931       .  S
C1627      C1628   1.401       .  A
C1627      C1632   1.390       .  A
C1628      C1629   1.431       .  A
C1628     Br1639   1.935       .  S
C1629      C1630   1.471       .  A
C1629     Br1635   1.948       .  S
C1630      C1631   1.460       .  A
C1631      C1632   1.422       .  A
C1641      C1642   1.405       .  A
C1641      C1646   1.404       .  A
C1642      C1643   1.405       .  A
C1642     Br1654   1.931       .  S
C1643      C1644   1.412       .  A
C1643     Br1658   1.920       .  S
C1644      C1647   1.487       .  S
C1644      C1645   1.416       .  A
C1645      C1646   1.403       .  A
C1645     Br1653   1.933       .  S
C1646     Br1657   1.929       .  S
C1647      C1648   1.395       .  A
C1647      C1652   1.395       .  A
C1648      C1649   1.407       .  A
C1648     Br1659   1.928       .  S
C1649      C1650   1.437       .  A
C1650      C1651   1.479       .  A
C1651      C1652   1.429       .  A
C1651     Br1660   1.922       .  S
C1652     Br1656   1.961       .  S
C1661      C1662   1.444       .  A
C1661      C1666   1.468       .  A
C1662      C1663   1.419       .  A
C1662     Br1674   1.918   1_655  S
C1663      C1664   1.397       .  A
C1663     Br1678   1.934       .  S
C1664      C1667   1.508       .  S
C1664      C1665   1.397       .  A
C1665      C1666   1.425       .  A
C1665     Br1673   1.939       .  S
C1667      C1668   1.408       .  A
C1667      C1672   1.414       .  A
C1668      C1669   1.419       .  A
C1668     Br1679   1.929       .  S
C1669      C1670   1.426       .  A
C1669     Br1675   1.934       .  S
C1670      C1671   1.413       .  A
C1671      C1672   1.407       .  A
C1671     Br1680   1.930       .  S
C1672     Br1676   1.916       .  S
C1681      C1682   1.458       .  A
C1681      C1686   1.460       .  A
C1682      C1683   1.427       .  A
C1682     Br1694   1.906       .  S
C1683      C1684   1.394       .  A
C1683     Br1698   1.954       .  S
C1684      C1687   1.482       .  S
C1684      C1685   1.390       .  A
C1685      C1686   1.402       .  A
C1685     Br1693   1.933       .  S
C1686     Br1697   1.942       .  S
C1687      C1688   1.414       .  A
C1687      C1692   1.408       .  A
C1688      C1689   1.403       .  A
C1688     Br1699   1.932       .  S
C1689      C1690   1.407       .  A
C1689     Br1695   1.933       .  S
C1690      C1691   1.408       .  A
C1691      C1692   1.406       .  A
C1691     Br1700   1.928       .  S
C1692     Br1696   1.926       .  S
C1701      C1702   1.472       .  A
C1701      C1706   1.465       .  A
C1702      C1703   1.434       .  A
C1702     Br1714   1.918       .  S
C1703      C1704   1.398       .  A
C1703     Br1718   1.948       .  S
C1704      C1707   1.503       .  S
C1704      C1705   1.392       .  A
C1705      C1706   1.413       .  A
C1705     Br1713   1.936       .  S
C1706     Br1717   1.949       .  S
C1707      C1712   1.408       .  A
C1708      C1709   1.418       .  A
C1708     Br1719   1.930       .  S
C1709      C1710   1.428       .  A
C1709     Br1715   1.935       .  S
C1710      C1711   1.423       .  A
C1711     Br1720   1.928       .  S
C1712     Br1716   1.932       .  S
C1721      C1722   1.473       .  A
C1721      C1726   1.457       .  A
C1722      C1723   1.426       .  A
C1722     Br1734   1.957       .  S
C1723      C1724   1.399       .  A
C1723     Br1738   1.940       .  S
C1724      C1727   1.509       .  S
C1724      C1725   1.398       .  A
C1725      C1726   1.422       .  A
C1725     Br1733   1.947       .  S
C1726     Br1737   1.918       .  S
C1727      C1732   1.410       .  A
C1728      C1729   1.421       .  A
C1728     Br1739   1.930       .  S
C1729      C1730   1.417       .  A
C1729     Br1735   1.929       .  S
C1730      C1731   1.418       .  A
C1731     Br1740   1.930       .  S
C1732     Br1736   1.928       .  S
