geometry optimzed in LAMMPS
_audit_creation_date              2020-11-30 
_audit_creation_method            'lammps2cif' 
_symmetry_space_group_name_H-M    'P1' 
_symmetry_Int_Tables_number       1 
_symmetry_cell_setting            triclinic 
loop_ 
_symmetry_equiv_pos_as_xyz 
  x,y,z 
_cell_length_a                    44.60684432 
_cell_length_b                    44.590843711694596 
_cell_length_c                    50.71282594860612 
_cell_angle_alpha                 89.97829339803161 
_cell_angle_beta                  89.95593611015707 
_cell_angle_gamma                 90.00815524910574 
loop_ 
_atom_site_label 
_atom_site_type_symbol 
_atom_site_fract_x 
_atom_site_fract_y 
_atom_site_fract_z 
_atom_site_charge 
N1          N  0.53758637  0.23173421  0.08070279    -0.27500
N2          N  0.52753523  0.20626386  0.09076330    -0.35400
C3          C  0.53829329  0.18321894  0.07651053     0.00800
C4          C  0.55640570  0.19472646  0.05687224     0.06800
C5          C  0.55560550  0.22550221  0.06013002    -0.06300
H6          H  0.53365024  0.15982178  0.08044039     0.07500
H7          H  0.56669577  0.24216525  0.04805705     0.07500
Cu8        Cu  0.50068625  0.20366519  0.12399818     0.44200
Cu9        Cu  0.52489913  0.27384067  0.09435413     0.42000
Cu10       Cu  0.47292031  0.27381907  0.14939664     0.43900
N11         N  0.47408524  0.20695627  0.15733944    -0.34900
N12         N  0.46283693  0.23254883  0.16601249    -0.29200
C13         C  0.44529703  0.22700458  0.18704977    -0.05300
C14         C  0.44600491  0.19653680  0.19204395     0.06900
C15         C  0.46452074  0.18450211  0.17292676     0.00700
H16         H  0.43319658  0.24392729  0.19802815     0.08400
H17         H  0.47001060  0.16108401  0.17011617     0.07500
N18         N  0.48836752  0.31247073  0.13116279    -0.36400
N19         N  0.50729884  0.31262569  0.11106801    -0.28600
C20         C  0.51334593  0.34124661  0.10445613    -0.03800
C21         C  0.49757000  0.35986737  0.12130383     0.04800
C22         C  0.48198540  0.34091061  0.13794782     0.02900
H23         H  0.52856670  0.34800289  0.08893166     0.08000
H24         H  0.46746953  0.34732154  0.15408999     0.06800
O25         O  0.45645333  0.54790554  0.10324375    -0.73200
O26         O  0.54665697  0.55116704  0.10551000    -0.74200
O27         O  0.50326441  0.50467311  0.10400583    -0.62800
O28         O  0.49968910  0.59430485  0.10443897    -0.71200
O29         O  0.50033642  0.59433808  0.14807352    -0.70800
O30         O  0.49951819  0.50395106  0.14745482    -0.62000
O31         O  0.54512590  0.54927751  0.14926166    -0.74500
O32         O  0.45518393  0.54900330  0.14703044    -0.73300
Cu33       Cu  0.50159850  0.54951503  0.10279285     1.04600
Cu34       Cu  0.50003573  0.54912120  0.14949868     1.04300
C35         C  0.44170366  0.54817148  0.12485766     0.93000
C36         C  0.56002331  0.55061715  0.12778737     0.92100
C37         C  0.50106113  0.48993701  0.12550055     0.84300
C38         C  0.49986176  0.60864654  0.12621224     0.90600
N39         N  0.81720368  0.51034776  0.16844587    -0.27500
N40         N  0.84297073  0.52057294  0.15914661    -0.35400
C41         C  0.86540341  0.51010138  0.17431561     0.00800
C42         C  0.85312448  0.49206397  0.19371839     0.06800
C43         C  0.82258035  0.49255789  0.18934051    -0.06300
H44         H  0.88891531  0.51495568  0.17124379     0.07500
H45         H  0.80544329  0.48153823  0.20093999     0.08700
Cu46       Cu  0.84640994  0.54779355  0.12590810     0.44200
Cu47       Cu  0.77571220  0.52305413  0.15396302     0.42000
Cu48       Cu  0.77587193  0.57667870  0.10061868     0.43900
N49         N  0.84318416  0.57551938  0.09296936    -0.34900
N50         N  0.81758531  0.58705982  0.08456256    -0.29200
C51         C  0.82315347  0.60514944  0.06388008    -0.05300
C52         C  0.85359957  0.60459657  0.05872751     0.06900
C53         C  0.86562668  0.58548550  0.07745761     0.00700
H54         H  0.80619220  0.61739044  0.05308468     0.08400
H55         H  0.88901106  0.57971482  0.07995991     0.07500
N56         N  0.73693270  0.56112406  0.11871073    -0.36400
N57         N  0.73702927  0.54154045  0.13829331    -0.28600
C58         C  0.70860200  0.53571940  0.14551255    -0.03800
C59         C  0.68961248  0.55223927  0.12958378     0.04800
C60         C  0.70834060  0.56812101  0.11282701     0.02900
H61         H  0.70221085  0.52030200  0.16100819     0.08000
H62         H  0.70164680  0.58325603  0.09722796     0.06800
N63         N  0.53862176  0.86643037  0.16485678    -0.27500
N64         N  0.52782787  0.89203008  0.15571552    -0.35400
C65         C  0.53805490  0.91465927  0.17080925     0.00800
C66         C  0.55653408  0.90267669  0.18999943     0.06800
C67         C  0.55650296  0.87211422  0.18559166    -0.06300
H68         H  0.53275362  0.93808972  0.16780952     0.07500
H69         H  0.56798742  0.85515959  0.19703193     0.08700
Cu70       Cu  0.50041547  0.89493309  0.12265943     0.44200
Cu71       Cu  0.52694807  0.82469305  0.15016087     0.42000
Cu72       Cu  0.47413484  0.82414623  0.09616097     0.43900
N73         N  0.47314365  0.89136017  0.08955662    -0.34900
N74         N  0.46251063  0.86557770  0.08067897    -0.29200
C75         C  0.44455632  0.87090053  0.05989694    -0.05300
C76         C  0.44433219  0.90141560  0.05517792     0.06900
C77         C  0.46274975  0.91373227  0.07425208     0.00700
H78         H  0.43302718  0.85375234  0.04872663     0.08400
H79         H  0.46778948  0.93724440  0.07710114     0.07500
N80         N  0.49043343  0.78559323  0.11395210    -0.36400
N81         N  0.50964870  0.78580387  0.13380178    -0.28600
C82         C  0.51555558  0.75737612  0.14099471    -0.03800
C83         C  0.49936388  0.73848373  0.12479880     0.04800
C84         C  0.48374404  0.75701385  0.10784403     0.02900
H85         H  0.53062781  0.75094843  0.15671290     0.08000
H86         H  0.46867060  0.75024085  0.09224246     0.06800
N87         N  0.18488546  0.59359986  0.16351756    -0.27500
N88         N  0.15940995  0.58161023  0.15533608    -0.35400
C89         C  0.13708919  0.59063465  0.17135457     0.00800
C90         C  0.14903770  0.60953336  0.19024906     0.06800
C91         C  0.17933441  0.61110058  0.18459121    -0.06300
H92         H  0.11385178  0.58410019  0.16926815     0.07500
H93         H  0.19625964  0.62323989  0.19551481     0.08700
Cu94       Cu  0.15616352  0.55356147  0.12270350     0.44200
Cu95       Cu  0.22647073  0.58266067  0.14773205     0.42000
Cu96       Cu  0.22620526  0.52405322  0.09807362     0.43900
N97         N  0.15930013  0.52522080  0.09026567    -0.34900
N98         N  0.18482343  0.51333594  0.08207787    -0.29200
C99         C  0.17930415  0.49516813  0.06146903    -0.05300
C100        C  0.14893966  0.49611403  0.05614869     0.06900
C101        C  0.13691941  0.51540274  0.07471304     0.00700
H102        H  0.19623659  0.48270336  0.05082011     0.08400
H103        H  0.11357855  0.52145989  0.07703420     0.07500
N104        N  0.26488972  0.54109803  0.11504027    -0.36400
N105        N  0.26506583  0.56268954  0.13291442    -0.28600
C106        C  0.29361959  0.56864382  0.13966685    -0.03800
C107        C  0.31227481  0.55001610  0.12524683     0.04800
C108        C  0.29329578  0.53288267  0.10983716     0.02900
H109        H  0.30032111  0.58537455  0.15393970     0.08000
H110        H  0.29968605  0.51595290  0.09562752     0.06800
N111        N  0.53444597  0.86318652  0.32863403    -0.27500
N112        N  0.52415209  0.88879002  0.33821293    -0.35400
C113        C  0.53527760  0.91161017  0.32384929     0.00800
C114        C  0.55386108  0.89982810  0.30463661     0.06800
C115        C  0.55292986  0.86910345  0.30827715    -0.06300
H116        H  0.53063908  0.93507049  0.32746132     0.07500
H117        H  0.56440343  0.85225791  0.29670402     0.08700
Cu118      Cu  0.49659316  0.89168306  0.37115184     0.44200
Cu119      Cu  0.52202672  0.82130572  0.34311621     0.42000
Cu120      Cu  0.46901100  0.82123927  0.39739233     0.43900
N121        N  0.46938920  0.88847896  0.40429602    -0.34900
N122        N  0.45808709  0.86293946  0.41311519    -0.29200
C123        C  0.44066415  0.86866858  0.43422172    -0.05300
C124        C  0.44154872  0.89916561  0.43916596     0.06900
C125        C  0.46000318  0.91101966  0.41988529     0.00700
H126        H  0.42886421  0.85179395  0.44552101     0.08400
H127        H  0.46586558  0.93436403  0.41715965     0.07500
N128        N  0.48688945  0.78240480  0.38089987    -0.36400
N129        N  0.50615379  0.78240108  0.36103890    -0.28600
C130        C  0.51360856  0.75386625  0.35529037    -0.03800
C131        C  0.49848020  0.73510766  0.37247707     0.04800
C132        C  0.48174120  0.75389360  0.38841040     0.02900
H133        H  0.52898558  0.74726919  0.33984043     0.08000
H134        H  0.46690636  0.74731649  0.40427704     0.06800
O135        O  0.49855340  0.50019162  0.35534004    -0.73200
O136        O  0.50230475  0.59029700  0.35447874    -0.74200
O137        O  0.54534495  0.54362543  0.35722816    -0.62800
O138        O  0.45558567  0.54717578  0.35256393    -0.71200
O139        O  0.45281541  0.54755007  0.39626774    -0.70800
O140        O  0.54260352  0.54443496  0.40096070    -0.62000
O141        O  0.49884368  0.59118333  0.39804593    -0.74500
O142        O  0.49593959  0.50078543  0.39903227    -0.73300
Cu143      Cu  0.50059074  0.54525552  0.35339802     1.04600
Cu144      Cu  0.49750685  0.54597942  0.40011265     1.04300
C145        C  0.49653158  0.48626301  0.37729963     0.93000
C146        C  0.50065068  0.60506058  0.37602790     0.92100
C147        C  0.55809501  0.54371009  0.37977244     0.84300
C148        C  0.44006608  0.54808971  0.37372820     0.90600
N149        N  0.18379940  0.59416832  0.33595224    -0.27500
N150        N  0.15868997  0.58014182  0.34230757    -0.35400
C151        C  0.13693755  0.58860547  0.32554064     0.00800
C152        C  0.14890563  0.60914309  0.30801560     0.06800
C153        C  0.17858151  0.61233920  0.31527398    -0.06300
H154        H  0.11407717  0.58051427  0.32615699     0.07500
H155        H  0.19538675  0.62606124  0.30570942     0.08700
Cu156      Cu  0.15520265  0.55010876  0.37342445     0.44200
Cu157      Cu  0.22477481  0.58486152  0.35324823     0.42000
Cu158      Cu  0.22541838  0.52191137  0.39858055     0.43900
N159        N  0.15838630  0.52125760  0.40541036    -0.34900
N160        N  0.18402135  0.50992975  0.41389628    -0.29200
C161        C  0.17859636  0.49205006  0.43473518    -0.05300
C162        C  0.14816783  0.49261862  0.43985006     0.06900
C163        C  0.13601503  0.51135372  0.42094370     0.00700
H164        H  0.19566431  0.48040393  0.44590372     0.08400
H165        H  0.11266402  0.51736551  0.41864247     0.07500
N166        N  0.26379292  0.54127966  0.38299257    -0.36400
N167        N  0.26356553  0.56482642  0.36711788    -0.28600
C168        C  0.29195360  0.57203897  0.36081074    -0.03800
C169        C  0.31084934  0.55202970  0.37329270     0.04800
C170        C  0.29234098  0.53286323  0.38720420     0.02900
H171        H  0.29834185  0.59031086  0.34793796     0.08000
H172        H  0.29912183  0.51430488  0.39958344     0.06800
N173        N  0.45740814  0.22895050  0.33625102    -0.27500
N174        N  0.47034598  0.20362414  0.34363957    -0.35400
C175        C  0.46238687  0.18168043  0.32681998     0.00800
C176        C  0.44323772  0.19379022  0.30822549     0.06800
C177        C  0.44045441  0.22371139  0.31484550    -0.06300
H178        H  0.46954947  0.15856190  0.32833222     0.07500
H179        H  0.42744630  0.24056408  0.30461763     0.08700
Cu180      Cu  0.49762477  0.20014378  0.37656973     0.44200
Cu181      Cu  0.46505775  0.27003537  0.35415571     0.42000
Cu182      Cu  0.52223727  0.27105393  0.40437309     0.43900
N183        N  0.52538530  0.20364057  0.40918188    -0.34900
N184        N  0.53562458  0.22941762  0.41842720    -0.29200
C185        C  0.55411963  0.22389427  0.43879949    -0.05300
C186        C  0.55508619  0.19325876  0.44279789     0.06900
C187        C  0.53654376  0.18108232  0.42379861     0.00700
H188        H  0.56535989  0.24096418  0.45028480     0.08400
H189        H  0.53183799  0.15756172  0.42057830     0.07500
N190        N  0.50252907  0.30955995  0.38918213    -0.36400
N191        N  0.48107516  0.30914701  0.37119951    -0.28600
C192        C  0.47346331  0.33753369  0.36514365    -0.03800
C193        C  0.49097505  0.35665891  0.38005459     0.04800
C194        C  0.50917226  0.33822904  0.39503894     0.02900
H195        H  0.45704768  0.34378476  0.35044462     0.08000
H196        H  0.52633413  0.34515753  0.40881313     0.06800
N197        N  0.81500589  0.50591844  0.33665370    -0.27500
N198        N  0.84001363  0.51965493  0.34378177    -0.35400
C199        C  0.86241165  0.51091378  0.32773826     0.00800
C200        C  0.85109537  0.49037604  0.30990321     0.06800
C201        C  0.82101219  0.48760885  0.31618812    -0.06300
H202        H  0.88534753  0.51863148  0.32920228     0.07500
H203        H  0.80456027  0.47383492  0.30624850     0.08700
Cu204      Cu  0.84299141  0.54889468  0.37559697     0.44200
Cu205      Cu  0.77343155  0.51466107  0.35378581     0.42000
Cu206      Cu  0.77324630  0.57406227  0.40315211     0.43900
N207        N  0.84019799  0.57654552  0.40850236    -0.34900
N208        N  0.81455263  0.58695788  0.41782879    -0.29200
C209        C  0.82011145  0.60466250  0.43874754    -0.05300
C210        C  0.85069897  0.60493147  0.44305154     0.06900
C211        C  0.86276004  0.58683643  0.42359340     0.00700
H212        H  0.80309034  0.61579795  0.45038186     0.08400
H213        H  0.88621629  0.58178034  0.42045835     0.07500
N214        N  0.73486433  0.55382600  0.38870497    -0.36400
N215        N  0.73471719  0.53186457  0.37116245    -0.28600
C216        C  0.70609226  0.52411272  0.36615834    -0.03800
C217        C  0.68749943  0.54207433  0.38128473     0.04800
C218        C  0.70648185  0.56056915  0.39534331     0.02900
H219        H  0.69928894  0.50712169  0.35216430     0.08000
H220        H  0.70012038  0.57789524  0.40918837     0.06800
N221        N  0.95622397  0.73246609  0.41331409    -0.27500
N222        N  0.96943498  0.70721394  0.40603547    -0.35400
C223        C  0.96046563  0.68496093  0.42215595     0.00800
C224        C  0.94038385  0.69665371  0.44021585     0.06800
C225        C  0.93805686  0.72677641  0.43395073    -0.06300
H226        H  0.96793731  0.66193229  0.42075327     0.07500
H227        H  0.92487552  0.74351618  0.44415667     0.08700
Cu228      Cu  0.99904227  0.70385214  0.37445547     0.44200
Cu229      Cu  0.96582469  0.77407837  0.39663222     0.42000
Cu230      Cu  0.02606353  0.77403548  0.34852727     0.43900
N231        N  0.02803772  0.70689982  0.34241669    -0.34900
N232        N  0.03906283  0.73265077  0.33384494    -0.29200
C233        C  0.05723320  0.72737800  0.31318377    -0.05300
C234        C  0.05717783  0.69691722  0.30817459     0.06900
C235        C  0.03844011  0.68456952  0.32704741     0.00700
H236        H  0.06873975  0.74457832  0.30202939     0.08400
H237        H  0.03281785  0.66112336  0.32946026     0.07500
N238        N  0.00586802  0.81271957  0.36265302    -0.36400
N239        N  0.98361997  0.81288473  0.37991460    -0.28600
C240        C  0.97600938  0.84152190  0.38507522    -0.03800
C241        C  0.99431367  0.86018789  0.37030799     0.04800
C242        C  0.01289558  0.84114843  0.35630032     0.02900
H243        H  0.95886448  0.84828283  0.39895339     0.08000
H244        H  0.03049192  0.84751249  0.34270899     0.06800
O245        O  0.04395102  0.04774043  0.39366812    -0.73200
O246        O  0.95383309  0.04998074  0.39208714    -0.74200
O247        O  0.99776893  0.00365178  0.39246028    -0.62800
O248        O  0.99971508  0.09346873  0.39379081    -0.71200
O249        O  0.00001676  0.09451539  0.34999847    -0.70800
O250        O  0.99923539  0.00422960  0.34867738    -0.62000
O251        O  0.95485176  0.04953674  0.34844022    -0.74500
O252        O  0.04471655  0.04949222  0.34999943    -0.73300
Cu253      Cu  0.99880577  0.04861879  0.39451960     1.04600
Cu254      Cu  0.99977825  0.04942738  0.34774744     1.04300
C255        C  0.05860853  0.04887187  0.37201067     0.93000
C256        C  0.94005533  0.05015283  0.36999543     0.92100
C257        C  0.99805023  0.98979443  0.37043263     0.84300
C258        C  0.99991660  0.10812824  0.37217499     0.90600
N259        N  0.31510729  0.00896318  0.41425194    -0.27500
N260        N  0.34082423  0.01932276  0.40496241    -0.35400
C261        C  0.36335825  0.00910692  0.42011500     0.00800
C262        C  0.35129677  0.99106001  0.43957735     0.06800
C263        C  0.32068683  0.99131132  0.43523345    -0.06300
H264        H  0.38682169  0.01413439  0.41696781     0.07500
H265        H  0.30366990  0.98014889  0.44686235     0.08700
Cu266      Cu  0.34435063  0.04635760  0.37178714     0.44200
Cu267      Cu  0.27352971  0.02139431  0.39927501     0.42000
Cu268      Cu  0.27494689  0.07751135  0.34745034     0.43900
N269        N  0.34174784  0.07421433  0.33908269    -0.34900
N270        N  0.31650164  0.08673561  0.33100175    -0.29200
C271        C  0.32240850  0.10472972  0.31035231    -0.05300
C272        C  0.35272624  0.10304903  0.30494251     0.06900
C273        C  0.36432737  0.08345078  0.32344705     0.00700
H274        H  0.30579035  0.11775864  0.29986054     0.08400
H275        H  0.38754285  0.07695323  0.32579040     0.07500
N276        N  0.23582884  0.06145119  0.36448767    -0.36400
N277        N  0.23525042  0.04071587  0.38315594    -0.28600
C278        C  0.20652761  0.03466482  0.38932733    -0.03800
C279        C  0.18829349  0.05242500  0.37379075     0.04800
C280        C  0.20752041  0.06907376  0.35823268     0.02900
H281        H  0.19943708  0.01828365  0.40378514     0.08000
H282        H  0.20139857  0.08515573  0.34319608     0.06800
N283        N  0.03847148  0.36508227  0.41870479    -0.27500
N284        N  0.02745619  0.39053591  0.40944011    -0.35400
C285        C  0.03772282  0.41342195  0.42414685     0.00800
C286        C  0.05647113  0.40186238  0.44327716     0.06800
C287        C  0.05657516  0.37119654  0.43923202    -0.06300
H288        H  0.03239664  0.43678861  0.42080607     0.07500
H289        H  0.06848250  0.35451306  0.45064277     0.08700
Cu290      Cu  0.00002247  0.39347185  0.37659400     0.44200
Cu291      Cu  0.02714569  0.32309004  0.40395163     0.42000
Cu292      Cu  0.97332998  0.32344516  0.35037339     0.43900
N293        N  0.97272793  0.39043846  0.34367137    -0.34900
N294        N  0.96190910  0.36478454  0.33473637    -0.29200
C295        C  0.94406914  0.37031155  0.31392843    -0.05300
C296        C  0.94410057  0.40085945  0.30934459     0.06900
C297        C  0.96255075  0.41295977  0.32846891     0.00700
H298        H  0.93243857  0.35329984  0.30267904     0.08400
H299        H  0.96780451  0.43641296  0.33139695     0.07500
N300        N  0.98996746  0.28471838  0.36749409    -0.36400
N301        N  0.00984068  0.28442411  0.38684543    -0.28600
C302        C  0.01630644  0.25576183  0.39295910    -0.03800
C303        C  0.99965123  0.23731407  0.37666885     0.04800
C304        C  0.98323888  0.25634071  0.36079031     0.02900
H305        H  0.03201073  0.24887315  0.40803433     0.08000
H306        H  0.96780002  0.25003722  0.34531259     0.06800
N307        N  0.68368645  0.08637566  0.41575797    -0.27500
N308        N  0.65839519  0.07371360  0.40793309    -0.35400
C309        C  0.63597583  0.08261299  0.42386074     0.00800
C310        C  0.64767063  0.10216984  0.44228987     0.06800
C311        C  0.67791215  0.10415743  0.43656589    -0.06300
H312        H  0.61277757  0.07596221  0.42171800     0.07500
H313        H  0.69454903  0.11731957  0.44690262     0.08700
Cu314      Cu  0.65502849  0.04629289  0.37513667     0.44200
Cu315      Cu  0.72509536  0.07798310  0.39854463     0.42000
Cu316      Cu  0.72469668  0.02306128  0.34580107     0.43900
N317        N  0.65760786  0.01943968  0.34192534    -0.34900
N318        N  0.68320945  0.00960517  0.33204275    -0.29200
C319        C  0.67744146  0.99191819  0.31119500    -0.05300
C320        C  0.64676909  0.99109323  0.30755622     0.06900
C321        C  0.63484385  0.00885516  0.32725764     0.00700
H322        H  0.69435932  0.98128203  0.29909068     0.08400
H323        H  0.61138742  0.01351403  0.33083664     0.07500
N324        N  0.76321352  0.04279317  0.36037515    -0.36400
N325        N  0.76349501  0.06292247  0.37953071    -0.28600
C326        C  0.79209332  0.07039050  0.38481273    -0.03800
C327        C  0.81048300  0.05431894  0.36802780     0.04800
C328        C  0.79153116  0.03703102  0.35285363     0.02900
H329        H  0.79901476  0.08573834  0.40016258     0.08000
H330        H  0.79787276  0.02085265  0.33796903     0.06800
N331        N  0.96484360  0.36730307  0.16818610    -0.27500
N332        N  0.97533964  0.39329436  0.15959877    -0.35400
C333        C  0.96460524  0.41537947  0.17506003     0.00800
C334        C  0.94610649  0.40268454  0.19392937     0.06800
C335        C  0.94666150  0.37222583  0.18892597    -0.06300
H336        H  0.96941963  0.43897413  0.17242093     0.07500
H337        H  0.93514982  0.35484225  0.19985255     0.08700
Cu338      Cu  0.00266323  0.39762913  0.12647834     0.44200
Cu339      Cu  0.97682466  0.32603093  0.15241084     0.42000
Cu340      Cu  0.02939104  0.32751631  0.09864799     0.43900
N341        N  0.02940954  0.39485278  0.09288072    -0.34900
N342        N  0.04006073  0.36925350  0.08360857    -0.29200
C343        C  0.05747335  0.37485165  0.06255256    -0.05300
C344        C  0.05741513  0.40536128  0.05805527     0.06900
C345        C  0.03933026  0.41743960  0.07752947     0.00700
H346        H  0.06886362  0.35786725  0.05106852     0.08400
H347        H  0.03421658  0.44089730  0.08061000     0.07500
N348        N  0.01337120  0.28825752  0.11513327    -0.36400
N349        N  0.99390626  0.28762482  0.13479121    -0.28600
C350        C  0.98766463  0.25888349  0.14072596    -0.03800
C351        C  0.00394322  0.24064387  0.12391972     0.04800
C352        C  0.02001959  0.25999712  0.10797870     0.02900
H353        H  0.97229545  0.25178030  0.15601493     0.08000
H354        H  0.03531375  0.25398859  0.09227727     0.06800
O355        O  0.99909181  0.09574623  0.14332119    -0.73200
O356        O  0.00391712  0.00552719  0.14295275    -0.74200
O357        O  0.04633758  0.05356792  0.14276896    -0.62800
O358        O  0.95678637  0.04831937  0.14418671    -0.71200
O359        O  0.95607601  0.05160875  0.10050395    -0.70800
O360        O  0.04626782  0.04947094  0.09950953    -0.62000
O361        O  0.00039727  0.00576143  0.09931252    -0.74500
O362        O  0.00285356  0.09572881  0.09998889    -0.73300
Cu363      Cu  0.00154283  0.05073429  0.14482683     1.04600
Cu364      Cu  0.00128469  0.05067720  0.09829363     1.04300
C365        C  0.00138859  0.11020857  0.12165993     0.93000
C366        C  0.00243487  0.99142519  0.12101612     0.92100
C367        C  0.06076981  0.05201316  0.12109227     0.84300
C368        C  0.94227147  0.04964536  0.12256509     0.90600
N369        N  0.68506482  0.08158205  0.07979269    -0.27500
N370        N  0.65956314  0.07515901  0.09185294    -0.35400
C371        C  0.63673179  0.08704240  0.07806877     0.00800
C372        C  0.64855576  0.10218180  0.05669798     0.06800
C373        C  0.67922221  0.09841626  0.05839148    -0.06300
H374        H  0.61333689  0.08530274  0.08351136     0.07500
H375        H  0.69599970  0.10679861  0.04484345     0.08700
Cu376      Cu  0.65697234  0.05158096  0.12699428     0.44200
Cu377      Cu  0.72646766  0.06665858  0.09269932     0.42000
Cu378      Cu  0.72700970  0.02744236  0.15549501     0.43900
N379        N  0.65986228  0.02528350  0.16057982    -0.34900
N380        N  0.68543959  0.01519921  0.17030943    -0.29200
C381        C  0.67952546  0.99652819  0.19051758    -0.05300
C382        C  0.64878765  0.99531234  0.19387557     0.06900
C383        C  0.63702190  0.01392303  0.17471806     0.00700
H384        H  0.69634510  0.98495457  0.20203011     0.08400
H385        H  0.61356098  0.01815967  0.17080082     0.07500
N386        N  0.76534211  0.04028388  0.13531567    -0.36400
N387        N  0.76509018  0.05275937  0.11167785    -0.28600
C388        C  0.79347608  0.05666654  0.10348183    -0.03800
C389        C  0.81261064  0.04677744  0.12313840     0.04800
C390        C  0.79391238  0.03665159  0.14306778     0.02900
H391        H  0.79968607  0.06638945  0.08471047     0.08000
H392        H  0.80054488  0.02746383  0.16192594     0.06800
N393        N  0.03574126  0.73339063  0.16772975    -0.27500
N394        N  0.02653614  0.70752601  0.15787345    -0.35400
C395        C  0.03777227  0.68506631  0.17261626     0.00800
C396        C  0.05533186  0.69748907  0.19227030     0.06800
C397        C  0.05369354  0.72810886  0.18850666    -0.06300
H398        H  0.03400055  0.66146569  0.16893703     0.07500
H399        H  0.06430540  0.74532625  0.20028122     0.08700
Cu400      Cu  0.00058006  0.70426652  0.12390792     0.44200
Cu401      Cu  0.02272799  0.77478551  0.15323433     0.42000
Cu402      Cu  0.98292890  0.77493152  0.09135569     0.43900
N403        N  0.97507196  0.70765612  0.08968431    -0.34900
N404        N  0.96750754  0.73341431  0.07855321    -0.29200
C405        C  0.94935319  0.72786900  0.05791386    -0.05300
C406        C  0.94591692  0.69716720  0.05563670     0.06900
C407        C  0.96263355  0.68503276  0.07595387     0.00700
H408        H  0.93989813  0.74489346  0.04518922     0.08400
H409        H  0.96506843  0.66151336  0.08074956     0.07500
N410        N  0.99758281  0.81360636  0.11021812    -0.36400
N411        N  0.00957332  0.81355138  0.13400580    -0.28600
C412        C  0.01307988  0.84201893  0.14216700    -0.03800
C413        C  0.00372856  0.86115694  0.12221849     0.04800
C414        C  0.99432979  0.84214164  0.10216867     0.02900
H415        H  0.02165091  0.84820370  0.16134655     0.08000
H416        H  0.98547129  0.84851826  0.08313353     0.06800
N417        N  0.31861440  0.09091959  0.16236371    -0.27500
N418        N  0.34398619  0.07867539  0.15421135    -0.35400
C419        C  0.36633935  0.08739066  0.17028633     0.00800
C420        C  0.35447135  0.10634873  0.18915787     0.06800
C421        C  0.32423284  0.10822595  0.18349828    -0.06300
H422        H  0.38954686  0.08076512  0.16814402     0.07500
H423        H  0.30742302  0.12069453  0.19429393     0.08700
Cu424      Cu  0.34711216  0.05117885  0.12131271     0.44200
Cu425      Cu  0.27712575  0.08162705  0.14589363     0.42000
Cu426      Cu  0.27667408  0.02336114  0.09622116     0.43900
N427        N  0.34363188  0.02309840  0.08882565    -0.34900
N428        N  0.31793016  0.01165732  0.08062469    -0.29200
C429        C  0.32318769  0.99329207  0.06011698    -0.05300
C430        C  0.35358335  0.99360412  0.05490253     0.06900
C431        C  0.36589997  0.01280214  0.07336621     0.00700
H432        H  0.30605998  0.98114846  0.04944246     0.08400
H433        H  0.38934097  0.01842867  0.07571748     0.07500
N434        N  0.23821429  0.04269293  0.11146943    -0.36400
N435        N  0.23835718  0.06439126  0.12923955    -0.28600
C436        C  0.20990598  0.07203450  0.13487353    -0.03800
C437        C  0.19105417  0.05430398  0.11988465     0.04800
C438        C  0.20969367  0.03597646  0.10527159     0.02900
H439        H  0.20341475  0.08894586  0.14906417     0.08000
H440        H  0.20302408  0.01883825  0.09136602     0.06800
O441        O  0.09789741  0.41014710  0.02809519    -0.73200
O442        O  0.14301397  0.45313454  0.47095032    -0.74200
O443        O  0.14340198  0.45497826  0.02681925    -0.62800
O444        O  0.09754533  0.40819760  0.47246981    -0.71200
O445        O  0.06273855  0.44380931  0.47155043    -0.70800
O446        O  0.10812917  0.49013307  0.02653850    -0.62000
O447        O  0.10768059  0.48821851  0.47000434    -0.74500
O448        O  0.06312403  0.44581189  0.02795526    -0.73300
Cu449      Cu  0.12170611  0.43039566  0.49960752     1.04600
Cu450      Cu  0.08421006  0.46826087  0.49897647     1.04300
C451        C  0.07354886  0.42124283  0.03708399     0.93000
C452        C  0.13223418  0.47728868  0.46128708     0.92100
C453        C  0.13278414  0.47969714  0.03547650     0.84300
C454        C  0.07299902  0.41871493  0.46340238     0.90600
O455        O  0.56225608  0.15295865  0.02828944    -0.73200
O456        O  0.60671970  0.10770536  0.47190969    -0.74200
O457        O  0.60697137  0.10822457  0.02823324    -0.62800
O458        O  0.56174148  0.15223719  0.47196097    -0.71200
O459        O  0.59638941  0.18803772  0.47191207    -0.70800
O460        O  0.64260895  0.14303453  0.02719272    -0.62000
O461        O  0.64184009  0.14303783  0.47164928    -0.74500
O462        O  0.59726124  0.18839764  0.02748331    -0.73300
Cu463      Cu  0.58318522  0.12902894  0.50012547     1.04600
Cu464      Cu  0.62075589  0.16685478  0.49955641     1.04300
C465        C  0.57274667  0.17787876  0.03662973     0.93000
C466        C  0.63130997  0.11833597  0.46294402     0.92100
C467        C  0.63195673  0.11859389  0.03642636     0.84300
C468        C  0.57186623  0.17709511  0.46316967     0.90600
O469        O  0.93634853  0.65602490  0.47046430    -0.73200
O470        O  0.89402720  0.61067257  0.02840479    -0.74200
O471        O  0.89216988  0.61084025  0.47185408    -0.62800
O472        O  0.93854853  0.65582344  0.02695622    -0.71200
O473        O  0.90374968  0.69144042  0.02734347    -0.70800
O474        O  0.85627198  0.64531641  0.47327192    -0.62000
O475        O  0.85860342  0.64563995  0.02913054    -0.74500
O476        O  0.90098581  0.69104846  0.47149009    -0.73300
Cu477      Cu  0.91650802  0.63212639  0.49940963     1.04600
Cu478      Cu  0.87865332  0.66957936  0.50039161     1.04300
C479        C  0.92521841  0.68052226  0.46175354     0.93000
C480        C  0.86954573  0.62106240  0.03781257     0.92100
C481        C  0.86706331  0.62106492  0.46376972     0.84300
C482        C  0.92857829  0.68075303  0.03570412     0.90600
O483        O  0.43830931  0.94181752  0.02509264    -0.73200
O484        O  0.39272086  0.98552649  0.46854661    -0.74200
O485        O  0.39400236  0.98691041  0.02496623    -0.62800
O486        O  0.43703249  0.94041230  0.46855258    -0.71200
O487        O  0.40178579  0.90526379  0.46997007    -0.70800
O488        O  0.35830033  0.95218831  0.02584572    -0.62000
O489        O  0.35689523  0.95096918  0.47009295    -0.74500
O490        O  0.40316706  0.90653181  0.02584219    -0.73300
Cu491      Cu  0.41676660  0.96487688  0.49674814     1.04600
Cu492      Cu  0.37880119  0.92750834  0.49799759     1.04300
C493        C  0.42785327  0.91732439  0.03438878     0.93000
C494        C  0.36768255  0.97513462  0.46042334     0.92100
C495        C  0.36936889  0.97681106  0.03426406     0.84300
C496        C  0.42611156  0.91565017  0.46027718     0.90600
O497        O  0.06325299  0.65636885  0.27811014    -0.73200
O498        O  0.10864368  0.61336196  0.22073200    -0.74200
O499        O  0.10899433  0.61302570  0.27737608    -0.62800
O500        O  0.06259294  0.65656358  0.22149398    -0.71200
O501        O  0.09652424  0.69303064  0.22166892    -0.70800
O502        O  0.14346785  0.64897856  0.27721852    -0.62000
O503        O  0.14317964  0.64923367  0.22110389    -0.74500
O504        O  0.09721701  0.69278896  0.27754724    -0.73300
Cu505      Cu  0.08470410  0.63354207  0.24941536     1.04600
Cu506      Cu  0.12132094  0.67225364  0.24935141     1.04300
C507        C  0.07326131  0.68127560  0.28694561     0.93000
C508        C  0.13292282  0.62468996  0.21175941     0.92100
C509        C  0.13318173  0.62435634  0.28642026     0.84300
C510        C  0.07227237  0.68162134  0.21276635     0.90600
O511        O  0.39407239  0.10909504  0.27587489    -0.73200
O512        O  0.43987373  0.15516440  0.22097654    -0.74200
O513        O  0.43883007  0.15373226  0.27748359    -0.62800
O514        O  0.39498612  0.11068162  0.21937175    -0.71200
O515        O  0.35978218  0.14590827  0.21996924    -0.70800
O516        O  0.40380979  0.18914740  0.27729143    -0.62000
O517        O  0.40510507  0.19082423  0.22158082    -0.74500
O518        O  0.35870097  0.14415701  0.27568543    -0.73300
Cu519      Cu  0.41819664  0.13091671  0.24841037     1.04600
Cu520      Cu  0.38064397  0.16873377  0.24863573     1.04300
C521        C  0.36923761  0.11947156  0.28448898     0.93000
C522        C  0.42962852  0.18014692  0.21257348     0.92100
C523        C  0.42801210  0.17815992  0.28660684     0.84300
C524        C  0.37050670  0.12164106  0.21051632     0.90600
O525        O  0.89349353  0.48677035  0.22380140    -0.73200
O526        O  0.93792658  0.44218879  0.28038152    -0.74200
O527        O  0.93904596  0.44302632  0.22393014    -0.62800
O528        O  0.89227140  0.48598826  0.28033102    -0.71200
O529        O  0.85762117  0.45024876  0.27943042    -0.70800
O530        O  0.90476165  0.40691271  0.22333453    -0.62000
O531        O  0.90380926  0.40592064  0.27914334    -0.74500
O532        O  0.85854043  0.45128342  0.22346677    -0.73300
Cu533      Cu  0.91687195  0.46575000  0.25215257     1.04600
Cu534      Cu  0.87996014  0.42733461  0.25130892     1.04300
C535        C  0.86910357  0.47597524  0.21466680     0.93000
C536        C  0.92787499  0.41705665  0.28863439     0.92100
C537        C  0.92920375  0.41824857  0.21472157     0.84300
C538        C  0.86770848  0.47483555  0.28885930     0.90600
O539        O  0.64241585  0.95298714  0.22186639    -0.73200
O540        O  0.59551581  0.90593495  0.27576226    -0.74200
O541        O  0.59690396  0.90776365  0.22004417    -0.62800
O542        O  0.64116422  0.95095949  0.27738496    -0.71200
O543        O  0.60582516  0.98606557  0.27807234    -0.70800
O544        O  0.56202032  0.94331302  0.21993362    -0.62000
O545        O  0.56081759  0.94164981  0.27633535    -0.74500
O546        O  0.60691083  0.98791976  0.22187241    -0.73300
Cu547      Cu  0.62022331  0.92815007  0.24874382     1.04600
Cu548      Cu  0.58266499  0.96596206  0.24905551     1.04300
C549        C  0.63196362  0.97789987  0.21345895     0.93000
C550        C  0.57086514  0.91654206  0.28462353     0.92100
C551        C  0.57257645  0.91872741  0.21092681     0.84300
C552        C  0.63045793  0.97528816  0.28672945     0.90600
C553        C  0.11019594  0.06301501  0.09818930    -0.02100
C554        C  0.09434667  0.05315120  0.12099487     0.07600
C555        C  0.11109663  0.04445179  0.14366909    -0.02200
C556        C  0.14266359  0.04478853  0.14308674    -0.02200
C557        C  0.15796906  0.05402958  0.12026642     0.07700
C558        C  0.14178476  0.06313831  0.09789704    -0.02400
Br559      Br  0.16320076  0.07700224  0.06703316    -0.01000
Br560      Br  0.08971050  0.07855116  0.06741923    -0.01000
Br561      Br  0.16527117  0.03117130  0.17336586    -0.01000
Br562      Br  0.09211233  0.03138078  0.17605419    -0.01000
C563        C  0.97930086  0.94188228  0.10958542    -0.02100
C564        C  0.00313977  0.95823868  0.12074962     0.07600
C565        C  0.02768138  0.94279057  0.13171638    -0.02200
C566        C  0.02823848  0.91117667  0.13194709    -0.02200
C567        C  0.00342227  0.89463612  0.12224173     0.07700
C568        C  0.97857632  0.91041115  0.11171035    -0.02400
Br569      Br  0.94192757  0.88984409  0.10240305    -0.01000
Br570      Br  0.94774035  0.96234011  0.09070552    -0.01000
Br571      Br  0.06417436  0.89133095  0.14415170    -0.01000
Br572      Br  0.06194462  0.96504649  0.14420381    -0.01000
C573        C  0.89392978  0.02357027  0.13260779    -0.02100
C574        C  0.90921013  0.04905906  0.12315342     0.07600
C575        C  0.89280861  0.07424357  0.11469683    -0.02200
C576        C  0.86128415  0.07402842  0.11578513    -0.02200
C577        C  0.84587198  0.04759030  0.12317039     0.07700
C578        C  0.86247513  0.02211987  0.13108505    -0.02400
Br579      Br  0.84280876  0.98428534  0.13790148    -0.01000
Br580      Br  0.91584915  0.99081771  0.14832058    -0.01000
Br581      Br  0.83981756  0.11094236  0.10931000    -0.01000
Br582      Br  0.91361989  0.10987145  0.10329593    -0.01000
C583        C  0.01482414  0.19093295  0.14455924    -0.02100
C584        C  0.00390380  0.20748965  0.12301419     0.07600
C585        C  0.99323379  0.19244090  0.10052170    -0.02200
C586        C  0.99266882  0.16083155  0.09974302    -0.02200
C587        C  0.00273425  0.14380330  0.12178097     0.07700
C588        C  0.01459221  0.15933469  0.14395514    -0.02400
Br589      Br  0.03305090  0.13824020  0.17310592    -0.01000
Br590      Br  0.03165345  0.21179363  0.17452833    -0.01000
Br591      Br  0.97748519  0.14200444  0.06807596    -0.01000
Br592      Br  0.97816797  0.21537085  0.07097356    -0.01000
C593        C  0.89166068  0.06900523  0.35041596    -0.02100
C594        C  0.90676351  0.05111284  0.36934055     0.07600
C595        C  0.88975577  0.03405394  0.38757334    -0.02200
C596        C  0.85824412  0.03538104  0.38716615    -0.02200
C597        C  0.84346826  0.05313900  0.36831579     0.07700
C598        C  0.86010627  0.06947755  0.34965996    -0.02400
Br599      Br  0.83941181  0.09261021  0.32310692    -0.01000
Br600      Br  0.91359756  0.09456208  0.32638487    -0.01000
Br601      Br  0.83501818  0.01206130  0.41195520    -0.01000
Br602      Br  0.90899958  0.00739589  0.41240543    -0.01000
C603        C  0.02428052  0.18904083  0.36422636    -0.02100
C604        C  0.99987432  0.20426137  0.37572733     0.07600
C605        C  0.97537618  0.18791890  0.38579756    -0.02200
C606        C  0.97538538  0.15639571  0.38456995    -0.02200
C607        C  0.99976971  0.14115573  0.37299612     0.07700
C608        C  0.02417841  0.15751899  0.36274479    -0.02400
Br609      Br  0.05793871  0.13672458  0.34747779    -0.01000
Br610      Br  0.05757427  0.21146716  0.35000896    -0.01000
Br611      Br  0.94149645  0.13411255  0.39796502    -0.01000
Br612      Br  0.94202417  0.20874868  0.40168392    -0.01000
C613        C  0.10704995  0.06948679  0.38984002    -0.02100
C614        C  0.09189243  0.04991882  0.37235655     0.07600
C615        C  0.10876981  0.03201844  0.35471189    -0.02200
C616        C  0.14030873  0.03348357  0.35480571    -0.02200
C617        C  0.15523265  0.05216748  0.37287528     0.07700
C618        C  0.13862555  0.07033061  0.39021817    -0.02400
Br619      Br  0.15937147  0.09689763  0.41408012    -0.01000
Br620      Br  0.08493621  0.09671521  0.41221573    -0.01000
Br621      Br  0.16330939  0.00997842  0.33004291    -0.01000
Br622      Br  0.08916897  0.00429934  0.33106379    -0.01000
C623        C  0.96994061  0.91005987  0.36204808    -0.02100
C624        C  0.99509273  0.89341144  0.37048088     0.07600
C625        C  0.02114174  0.90860978  0.37895757    -0.02200
C626        C  0.02200795  0.94017412  0.37898667    -0.02200
C627        C  0.99705358  0.95672544  0.37022793     0.07700
C628        C  0.97099393  0.94165284  0.36180858    -0.02400
Br629      Br  0.93644410  0.96439226  0.35063394    -0.01000
Br630      Br  0.93433388  0.88968574  0.34996340    -0.01000
Br631      Br  0.05757990  0.96088448  0.39073619    -0.01000
Br632      Br  0.05536301  0.88636442  0.39160097    -0.01000
C633        C  0.60648931  0.51862723  0.39157999    -0.02100
C634        C  0.59111594  0.54357312  0.38117316     0.07600
C635        C  0.60737929  0.56840380  0.37162927    -0.02200
C636        C  0.63891743  0.56811604  0.37207127    -0.02200
C637        C  0.65435660  0.54262850  0.38142403     0.07700
C638        C  0.63806458  0.51792778  0.39127564    -0.02400
Br639      Br  0.65899561  0.48352073  0.40518625    -0.01000
Br640      Br  0.58432158  0.48535887  0.40614380    -0.01000
Br641      Br  0.66084851  0.60248544  0.35922694    -0.01000
Br642      Br  0.58635135  0.60330698  0.35873678    -0.01000
C643        C  0.47060917  0.43846749  0.39025591    -0.02100
C644        C  0.49476324  0.45305908  0.37754632     0.07600
C645        C  0.51703478  0.43576117  0.36484349    -0.02200
C646        C  0.51571990  0.40421381  0.36568328    -0.02200
C647        C  0.49186385  0.38974841  0.37871183     0.07700
C648        C  0.46900733  0.40689467  0.39052996    -0.02400
Br649      Br  0.43554192  0.38699243  0.40717333    -0.01000
Br650      Br  0.43890580  0.46160480  0.40633274    -0.01000
Br651      Br  0.54621000  0.38066177  0.34831256    -0.01000
Br652      Br  0.54989827  0.45503534  0.34675248    -0.01000
C653        C  0.39058331  0.52810985  0.35828667    -0.02100
C654        C  0.40705558  0.54992273  0.37230958     0.07600
C655        C  0.39181361  0.57311997  0.38569664    -0.02200
C656        C  0.36029253  0.57393395  0.38577351    -0.02200
C657        C  0.34388088  0.55161399  0.37247583     0.07700
C658        C  0.35902894  0.52881309  0.35860599    -0.02400
Br659      Br  0.33647260  0.49864502  0.33988260    -0.01000
Br660      Br  0.41104561  0.49660676  0.33934052    -0.01000
Br661      Br  0.33951902  0.60504205  0.40494293    -0.01000
Br662      Br  0.41404879  0.60463522  0.40301985    -0.01000
C663        C  0.48194766  0.68516559  0.35553010    -0.02100
C664        C  0.49938656  0.70194851  0.37329777     0.07600
C665        C  0.51718940  0.68709025  0.39213097    -0.02200
C666        C  0.51761684  0.65546913  0.39322841    -0.02200
C667        C  0.50023927  0.63844604  0.37528930     0.07700
C668        C  0.48217522  0.65358439  0.35656090    -0.02400
Br669      Br  0.45588050  0.63149717  0.33332216    -0.01000
Br670      Br  0.45706665  0.70568881  0.33014360    -0.01000
Br671      Br  0.54294598  0.63589769  0.41887666    -0.01000
Br672      Br  0.54153055  0.71028754  0.41607320    -0.01000
C673        C  0.39255784  0.52221823  0.13118473    -0.02100
C674        C  0.40870311  0.54822457  0.12433305     0.07600
C675        C  0.39331185  0.57476286  0.11788770    -0.02200
C676        C  0.36178312  0.57540879  0.11828925    -0.02200
C677        C  0.34546771  0.54944451  0.12526592     0.07700
C678        C  0.36098239  0.52283844  0.13179865    -0.02400
Br679      Br  0.33918182  0.48763179  0.14293449    -0.01000
Br680      Br  0.41381371  0.48563832  0.13924132    -0.01000
Br681      Br  0.34117115  0.61171393  0.10824486    -0.01000
Br682      Br  0.41560822  0.61043952  0.10891253    -0.01000
C683        C  0.51662532  0.65793943  0.10681066    -0.02100
C684        C  0.49967900  0.64201628  0.12593509     0.07600
C685        C  0.48241660  0.65829539  0.14454538    -0.02200
C686        C  0.48252894  0.68988656  0.14421064    -0.02200
C687        C  0.49934087  0.70543404  0.12513746     0.07700
C688        C  0.51620890  0.68949870  0.10638939    -0.02400
Br689      Br  0.53938382  0.71119287  0.08043297    -0.01000
Br690      Br  0.54183717  0.63722844  0.08166893    -0.01000
Br691      Br  0.45900442  0.71214506  0.16950009    -0.01000
Br692      Br  0.45700797  0.63792233  0.16971856    -0.01000
C693        C  0.60923428  0.52442672  0.12454356    -0.02100
C694        C  0.59306254  0.55109014  0.12871503     0.07600
C695        C  0.60847276  0.57803322  0.13385533    -0.02200
C696        C  0.64006776  0.57845434  0.13419498    -0.02200
C697        C  0.65637532  0.55181547  0.12958649     0.07700
C698        C  0.64079594  0.52472248  0.12497845    -0.02400
Br699      Br  0.66244889  0.48806322  0.11812066    -0.01000
Br700      Br  0.58791415  0.48736714  0.11861156    -0.01000
Br701      Br  0.66086533  0.61531972  0.14216536    -0.01000
Br702      Br  0.58620237  0.61431642  0.14056424    -0.01000
C703        C  0.48520289  0.41003254  0.10220455    -0.02100
C704        C  0.49847051  0.39298318  0.12239004     0.07600
C705        C  0.51216920  0.40750956  0.14387402    -0.02200
C706        C  0.51304785  0.43907747  0.14507631    -0.02200
C707        C  0.49989064  0.45649469  0.12472406     0.07700
C708        C  0.48547792  0.44159639  0.10345079    -0.02400
Br709      Br  0.46392896  0.46367546  0.07660881    -0.01000
Br710      Br  0.46554893  0.38991536  0.07322781    -0.01000
Br711      Br  0.53351809  0.45767508  0.17442456    -0.01000
Br712      Br  0.53087979  0.38393197  0.17128187    -0.01000
N713        N  0.53758643  0.23173420  0.58070282    -0.27500
N714        N  0.52753526  0.20626386  0.59076333    -0.35400
C715        C  0.53829330  0.18321894  0.57651056     0.00800
C716        C  0.55640574  0.19472644  0.55687228     0.06800
C717        C  0.55560560  0.22550218  0.56013008    -0.06300
H718        H  0.53365021  0.15982176  0.58044042     0.07500
H719        H  0.56669584  0.24216521  0.54805709     0.07500
Cu720      Cu  0.50068627  0.20366522  0.62399820     0.44200
Cu721      Cu  0.52489919  0.27384071  0.59435407     0.42000
Cu722      Cu  0.47292032  0.27381905  0.64939658     0.43900
N723        N  0.47408524  0.20695629  0.65733949    -0.34900
N724        N  0.46283694  0.23254883  0.66601251    -0.29200
C725        C  0.44529704  0.22700462  0.68704982    -0.05300
C726        C  0.44600495  0.19653682  0.69204398     0.06900
C727        C  0.46452079  0.18450208  0.67292679     0.00700
H728        H  0.43319662  0.24392732  0.69802814     0.08400
H729        H  0.47001065  0.16108409  0.67011618     0.07500
N730        N  0.48836749  0.31247071  0.63116275    -0.36400
N731        N  0.50729882  0.31262569  0.61106797    -0.28600
C732        C  0.51334593  0.34124662  0.60445607    -0.03800
C733        C  0.49756998  0.35986736  0.62130378     0.04800
C734        C  0.48198540  0.34091058  0.63794775     0.02900
H735        H  0.52856661  0.34800286  0.58893171     0.08000
H736        H  0.46746944  0.34732157  0.65409005     0.06800
O737        O  0.45645331  0.54790551  0.60324370    -0.73200
O738        O  0.54665696  0.55116702  0.60550995    -0.74200
O739        O  0.50326439  0.50467309  0.60400580    -0.62800
O740        O  0.49968907  0.59430483  0.60443892    -0.71200
O741        O  0.50033639  0.59433807  0.64807347    -0.70800
O742        O  0.49951817  0.50395105  0.64745478    -0.62000
O743        O  0.54512588  0.54927752  0.64926161    -0.74500
O744        O  0.45518391  0.54900331  0.64703039    -0.73300
Cu745      Cu  0.50159849  0.54951500  0.60279280     1.04600
Cu746      Cu  0.50003571  0.54912119  0.64949863     1.04300
C747        C  0.44170365  0.54817148  0.62485761     0.93000
C748        C  0.56002330  0.55061716  0.62778732     0.92100
C749        C  0.50106110  0.48993699  0.62550052     0.84300
C750        C  0.49986171  0.60864653  0.62621220     0.90600
N751        N  0.81720365  0.51034780  0.66844590    -0.27500
N752        N  0.84297071  0.52057296  0.65914662    -0.35400
C753        C  0.86540339  0.51010137  0.67431562     0.00800
C754        C  0.85312448  0.49206398  0.69371842     0.06800
C755        C  0.82258036  0.49255793  0.68934052    -0.06300
H756        H  0.88891528  0.51495566  0.67124381     0.07500
H757        H  0.80544324  0.48153823  0.70094008     0.08700
Cu758      Cu  0.84640993  0.54779356  0.62590809     0.44200
Cu759      Cu  0.77571220  0.52305420  0.65396305     0.42000
Cu760      Cu  0.77587193  0.57667873  0.60061863     0.43900
N761        N  0.84318417  0.57551941  0.59296935    -0.34900
N762        N  0.81758532  0.58705987  0.58456255    -0.29200
C763        C  0.82315349  0.60514951  0.56388008    -0.05300
C764        C  0.85359959  0.60459662  0.55872751     0.06900
C765        C  0.86562669  0.58548554  0.57745760     0.00700
H766        H  0.80619222  0.61739052  0.55308468     0.08400
H767        H  0.88901106  0.57971484  0.57995988     0.07500
N768        N  0.73693270  0.56112405  0.61871069    -0.36400
N769        N  0.73702927  0.54154048  0.63829328    -0.28600
C770        C  0.70860200  0.53571941  0.64551252    -0.03800
C771        C  0.68961249  0.55223927  0.62958372     0.04800
C772        C  0.70834060  0.56812102  0.61282693     0.02900
H773        H  0.70221085  0.52030202  0.66100817     0.08000
H774        H  0.70164685  0.58325597  0.59722793     0.06800
N775        N  0.53862178  0.86643038  0.66485675    -0.27500
N776        N  0.52782790  0.89203012  0.65571549    -0.35400
C777        C  0.53805497  0.91465927  0.67080924     0.00800
C778        C  0.55653410  0.90267668  0.68999944     0.06800
C779        C  0.55650294  0.87211424  0.68559164    -0.06300
H780        H  0.53275368  0.93808977  0.66780954     0.07500
H781        H  0.56798741  0.85515956  0.69703196     0.08700
Cu782      Cu  0.50041550  0.89493314  0.62265942     0.44200
Cu783      Cu  0.52694804  0.82469309  0.65016081     0.42000
Cu784      Cu  0.47413482  0.82414622  0.59616096     0.43900
N785        N  0.47314365  0.89136017  0.58955663    -0.34900
N786        N  0.46251060  0.86557771  0.58067900    -0.29200
C787        C  0.44455628  0.87090054  0.55989698    -0.05300
C788        C  0.44433218  0.90141561  0.55517794     0.06900
C789        C  0.46274975  0.91373227  0.57425207     0.00700
H790        H  0.43302713  0.85375235  0.54872666     0.08400
H791        H  0.46778950  0.93724439  0.57710111     0.07500
N792        N  0.49043336  0.78559322  0.61395209    -0.36400
N793        N  0.50964864  0.78580389  0.63380175    -0.28600
C794        C  0.51555557  0.75737613  0.64099474    -0.03800
C795        C  0.49936387  0.73848373  0.62479883     0.04800
C796        C  0.48374400  0.75701383  0.60784406     0.02900
H797        H  0.53062775  0.75094853  0.65671280     0.08000
H798        H  0.46867048  0.75024077  0.59224241     0.06800
N799        N  0.18488543  0.59359979  0.66351759    -0.27500
N800        N  0.15940996  0.58161015  0.65533614    -0.35400
C801        C  0.13708916  0.59063457  0.67135458     0.00800
C802        C  0.14903770  0.60953333  0.69024904     0.06800
C803        C  0.17933445  0.61110059  0.68459125    -0.06300
H804        H  0.11385175  0.58410008  0.66926815     0.07500
H805        H  0.19625956  0.62323978  0.69551471     0.08700
Cu806      Cu  0.15616356  0.55356130  0.62270359     0.44200
Cu807      Cu  0.22647076  0.58266063  0.64773215     0.42000
Cu808      Cu  0.22620525  0.52405314  0.59807365     0.43900
N809        N  0.15930013  0.52522071  0.59026571    -0.34900
N810        N  0.18482344  0.51333587  0.58207788    -0.29200
C811        C  0.17930414  0.49516813  0.56146901    -0.05300
C812        C  0.14893964  0.49611401  0.55614868     0.06900
C813        C  0.13691941  0.51540267  0.57471308     0.00700
H814        H  0.19623659  0.48270337  0.55082004     0.08400
H815        H  0.11357854  0.52145981  0.57703425     0.07500
N816        N  0.26488971  0.54109797  0.61504031    -0.36400
N817        N  0.26506583  0.56268947  0.63291446    -0.28600
C818        C  0.29361959  0.56864380  0.63966689    -0.03800
C819        C  0.31227479  0.55001611  0.62524680     0.04800
C820        C  0.29329576  0.53288265  0.60983714     0.02900
H821        H  0.30032107  0.58537448  0.65393967     0.08000
H822        H  0.29968602  0.51595286  0.59562748     0.06800
N823        N  0.53444598  0.86318653  0.82863404    -0.27500
N824        N  0.52415211  0.88879004  0.83821295    -0.35400
C825        C  0.53527765  0.91161018  0.82384932     0.00800
C826        C  0.55386114  0.89982812  0.80463666     0.06800
C827        C  0.55292988  0.86910348  0.80827717    -0.06300
H828        H  0.53063915  0.93507050  0.82746137     0.07500
H829        H  0.56440346  0.85225792  0.79670401     0.08700
Cu830      Cu  0.49659320  0.89168311  0.87115185     0.44200
Cu831      Cu  0.52202671  0.82130573  0.84311614     0.42000
Cu832      Cu  0.46901103  0.82123934  0.89739227     0.43900
N833        N  0.46938926  0.88847900  0.90429603    -0.34900
N834        N  0.45808716  0.86293949  0.91311520    -0.29200
C835        C  0.44066424  0.86866864  0.93422173    -0.05300
C836        C  0.44154877  0.89916566  0.93916597     0.06900
C837        C  0.46000321  0.91101969  0.91988530     0.00700
H838        H  0.42886424  0.85179397  0.94552105     0.08400
H839        H  0.46586559  0.93436407  0.91715968     0.07500
N840        N  0.48688944  0.78240484  0.88089981    -0.36400
N841        N  0.50615376  0.78240110  0.86103886    -0.28600
C842        C  0.51360857  0.75386626  0.85529032    -0.03800
C843        C  0.49848020  0.73510772  0.87247706     0.04800
C844        C  0.48174118  0.75389365  0.88841038     0.02900
H845        H  0.52898553  0.74726924  0.83984046     0.08000
H846        H  0.46690633  0.74731657  0.90427703     0.06800
O847        O  0.49855339  0.50019165  0.85534002    -0.73200
O848        O  0.50230475  0.59029704  0.85447873    -0.74200
O849        O  0.54534496  0.54362548  0.85722816    -0.62800
O850        O  0.45558565  0.54717583  0.85256390    -0.71200
O851        O  0.45281540  0.54755012  0.89626771    -0.70800
O852        O  0.54260352  0.54443497  0.90096070    -0.62000
O853        O  0.49884370  0.59118336  0.89804592    -0.74500
O854        O  0.49593954  0.50078547  0.89903225    -0.73300
Cu855      Cu  0.50059074  0.54525556  0.85339800     1.04600
Cu856      Cu  0.49750685  0.54597946  0.90011263     1.04300
C857        C  0.49653154  0.48626304  0.87729961     0.93000
C858        C  0.50065068  0.60506062  0.87602789     0.92100
C859        C  0.55809502  0.54371014  0.87977244     0.84300
C860        C  0.44006606  0.54808976  0.87372818     0.90600
N861        N  0.18379939  0.59416835  0.83595228    -0.27500
N862        N  0.15868997  0.58014183  0.84230759    -0.35400
C863        C  0.13693756  0.58860546  0.82554064     0.00800
C864        C  0.14890564  0.60914310  0.80801562     0.06800
C865        C  0.17858150  0.61233924  0.81527402    -0.06300
H866        H  0.11407719  0.58051424  0.82615697     0.07500
H867        H  0.19538674  0.62606129  0.80570948     0.08700
Cu868      Cu  0.15520264  0.55010878  0.87342447     0.44200
Cu869      Cu  0.22477480  0.58486155  0.85324824     0.42000
Cu870      Cu  0.22541838  0.52191134  0.89858049     0.43900
N871        N  0.15838627  0.52125757  0.90541037    -0.34900
N872        N  0.18402131  0.50992971  0.91389625    -0.29200
C873        C  0.17859639  0.49204998  0.93473517    -0.05300
C874        C  0.14816783  0.49261859  0.93985005     0.06900
C875        C  0.13601499  0.51135372  0.92094372     0.00700
H876        H  0.19566426  0.48040392  0.94590361     0.08400
H877        H  0.11266399  0.51736554  0.91864249     0.07500
N878        N  0.26379290  0.54127964  0.88299253    -0.36400
N879        N  0.26356551  0.56482646  0.86711785    -0.28600
C880        C  0.29195358  0.57203899  0.86081078    -0.03800
C881        C  0.31084935  0.55202974  0.87329268     0.04800
C882        C  0.29234095  0.53286328  0.88720412     0.02900
H883        H  0.29834190  0.59031096  0.84793795     0.08000
H884        H  0.29912188  0.51430483  0.89958338     0.06800
N885        N  0.45740813  0.22895055  0.83625107    -0.27500
N886        N  0.47034596  0.20362418  0.84363963    -0.35400
C887        C  0.46238685  0.18168048  0.82682002     0.00800
C888        C  0.44323769  0.19379026  0.80822553     0.06800
C889        C  0.44045440  0.22371141  0.81484557    -0.06300
H890        H  0.46954943  0.15856195  0.82833226     0.07500
H891        H  0.42744627  0.24056415  0.80461765     0.08700
Cu892      Cu  0.49762473  0.20014376  0.87656978     0.44200
Cu893      Cu  0.46505784  0.27003539  0.85415572     0.42000
Cu894      Cu  0.52223735  0.27105393  0.90437306     0.43900
N895        N  0.52538530  0.20364057  0.90918190    -0.34900
N896        N  0.53562461  0.22941761  0.91842720    -0.29200
C897        C  0.55411967  0.22389428  0.93879948    -0.05300
C898        C  0.55508621  0.19325876  0.94279789     0.06900
C899        C  0.53654373  0.18108231  0.92379864     0.00700
H900        H  0.56535996  0.24096420  0.95028475     0.08400
H901        H  0.53183794  0.15756173  0.92057833     0.07500
N902        N  0.50252913  0.30955997  0.88918209    -0.36400
N903        N  0.48107522  0.30914704  0.87119948    -0.28600
C904        C  0.47346338  0.33753371  0.86514367    -0.03800
C905        C  0.49097508  0.35665891  0.88005467     0.04800
C906        C  0.50917234  0.33822906  0.89503900     0.02900
H907        H  0.45704761  0.34378483  0.85044458     0.08000
H908        H  0.52633403  0.34515742  0.90881309     0.06800
N909        N  0.81500588  0.50591844  0.83665371    -0.27500
N910        N  0.84001362  0.51965491  0.84378180    -0.35400
C911        C  0.86241165  0.51091376  0.82773830     0.00800
C912        C  0.85109536  0.49037601  0.80990324     0.06800
C913        C  0.82101217  0.48760884  0.81618813    -0.06300
H914        H  0.88534751  0.51863143  0.82920233     0.07500
H915        H  0.80456026  0.47383493  0.80624852     0.08700
Cu916      Cu  0.84299139  0.54889470  0.87559698     0.44200
Cu917      Cu  0.77343152  0.51466108  0.85378581     0.42000
Cu918      Cu  0.77324629  0.57406228  0.90315214     0.43900
N919        N  0.84019798  0.57654553  0.90850238    -0.34900
N920        N  0.81455262  0.58695789  0.91782882    -0.29200
C921        C  0.82011145  0.60466251  0.93874756    -0.05300
C922        C  0.85069896  0.60493148  0.94305158     0.06900
C923        C  0.86276002  0.58683644  0.92359344     0.00700
H924        H  0.80309033  0.61579796  0.95038192     0.08400
H925        H  0.88621629  0.58178036  0.92045838     0.07500
N926        N  0.73486434  0.55382604  0.88870499    -0.36400
N927        N  0.73471719  0.53186457  0.87116246    -0.28600
C928        C  0.70609226  0.52411275  0.86615842    -0.03800
C929        C  0.68749941  0.54207435  0.88128476     0.04800
C930        C  0.70648186  0.56056916  0.89534328     0.02900
H931        H  0.69928886  0.50712166  0.85216432     0.08000
H932        H  0.70012034  0.57789531  0.90918838     0.06800
N933        N  0.95622401  0.73246607  0.91331410    -0.27500
N934        N  0.96943500  0.70721389  0.90603545    -0.35400
C935        C  0.96046561  0.68496091  0.92215593     0.00800
C936        C  0.94038385  0.69665368  0.94021586     0.06800
C937        C  0.93805690  0.72677638  0.93395074    -0.06300
H938        H  0.96793728  0.66193221  0.92075326     0.07500
H939        H  0.92487557  0.74351617  0.94415672     0.08700
Cu940      Cu  0.99904226  0.70385214  0.87445545     0.44200
Cu941      Cu  0.96582479  0.77407834  0.89663224     0.42000
Cu942      Cu  0.02606354  0.77403547  0.84852721     0.43900
N943        N  0.02803770  0.70689980  0.84241666    -0.34900
N944        N  0.03906280  0.73265075  0.83384489    -0.29200
C945        C  0.05723316  0.72737797  0.81318372    -0.05300
C946        C  0.05717780  0.69691719  0.80817455     0.06900
C947        C  0.03844010  0.68456952  0.82704737     0.00700
H948        H  0.06873971  0.74457829  0.80202931     0.08400
H949        H  0.03281786  0.66112329  0.82946025     0.07500
N950        N  0.00586807  0.81271958  0.86265300    -0.36400
N951        N  0.98362004  0.81288472  0.87991458    -0.28600
C952        C  0.97600940  0.84152189  0.88507524    -0.03800
C953        C  0.99431367  0.86018788  0.87030795     0.04800
C954        C  0.01289560  0.84114844  0.85630026     0.02900
H955        H  0.95886457  0.84828274  0.89895334     0.08000
H956        H  0.03049195  0.84751250  0.84270892     0.06800
O957        O  0.04395102  0.04774044  0.89366813    -0.73200
O958        O  0.95383310  0.04998070  0.89208707    -0.74200
O959        O  0.99776895  0.00365177  0.89246025    -0.62800
O960        O  0.99971507  0.09346869  0.89379079    -0.71200
O961        O  0.00001681  0.09451538  0.84999846    -0.70800
O962        O  0.99923538  0.00422960  0.84867734    -0.62000
O963        O  0.95485177  0.04953675  0.84844014    -0.74500
O964        O  0.04471657  0.04949220  0.84999944    -0.73300
Cu965      Cu  0.99880577  0.04861877  0.89451957     1.04600
Cu966      Cu  0.99977827  0.04942738  0.84774741     1.04300
C967        C  0.05860854  0.04887186  0.87201069     0.93000
C968        C  0.94005535  0.05015282  0.86999536     0.92100
C969        C  0.99805023  0.98979442  0.87043260     0.84300
C970        C  0.99991662  0.10812822  0.87217498     0.90600
N971        N  0.31510726  0.00896324  0.91425200    -0.27500
N972        N  0.34082421  0.01932280  0.90496244    -0.35400
C973        C  0.36335820  0.00910694  0.92011502     0.00800
C974        C  0.35129677  0.99106007  0.93957740     0.06800
C975        C  0.32068683  0.99131141  0.93523351    -0.06300
H976        H  0.38682176  0.01413440  0.91696782     0.07500
H977        H  0.30366991  0.98014900  0.94686245     0.08700
Cu978      Cu  0.34435058  0.04635754  0.87178712     0.44200
Cu979      Cu  0.27352967  0.02139434  0.89927510     0.42000
Cu980      Cu  0.27494689  0.07751138  0.84745041     0.43900
N981        N  0.34174781  0.07421427  0.83908268    -0.34900
N982        N  0.31650163  0.08673562  0.83100180    -0.29200
C983        C  0.32240849  0.10472978  0.81035238    -0.05300
C984        C  0.35272621  0.10304904  0.80494254     0.06900
C985        C  0.36432733  0.08345072  0.82344703     0.00700
H986        H  0.30579037  0.11775873  0.79986066     0.08400
H987        H  0.38754282  0.07695313  0.82579034     0.07500
N988        N  0.23582884  0.06145119  0.86448770    -0.36400
N989        N  0.23525039  0.04071587  0.88315597    -0.28600
C990        C  0.20652758  0.03466484  0.88932734    -0.03800
C991        C  0.18829348  0.05242505  0.87379077     0.04800
C992        C  0.20752042  0.06907378  0.85823269     0.02900
H993        H  0.19943702  0.01828367  0.90378517     0.08000
H994        H  0.20139860  0.08515576  0.84319611     0.06800
N995        N  0.03847158  0.36508223  0.91870480    -0.27500
N996        N  0.02745631  0.39053588  0.90944012    -0.35400
C997        C  0.03772297  0.41342190  0.92414685     0.00800
C998        C  0.05647123  0.40186233  0.94327718     0.06800
C999        C  0.05657529  0.37119649  0.93923203    -0.06300
H1000       H  0.03239675  0.43678860  0.92080611     0.07500
H1001       H  0.06848255  0.35451303  0.95064280     0.08700
Cu1002     Cu  0.00002248  0.39347185  0.87659406     0.44200
Cu1003     Cu  0.02714569  0.32309002  0.90395165     0.42000
Cu1004     Cu  0.97333004  0.32344516  0.85037335     0.43900
N1005       N  0.97272794  0.39043848  0.84367143    -0.34900
N1006       N  0.96190914  0.36478453  0.83473639    -0.29200
C1007       C  0.94406924  0.37031163  0.81392846    -0.05300
C1008       C  0.94410059  0.40085950  0.80934461     0.06900
C1009       C  0.96255073  0.41295976  0.82846897     0.00700
H1010       H  0.93243858  0.35329982  0.80267893     0.08400
H1011       H  0.96780445  0.43641297  0.83139702     0.07500
N1012       N  0.98996753  0.28471836  0.86749408    -0.36400
N1013       N  0.00984070  0.28442409  0.88684545    -0.28600
C1014       C  0.01630639  0.25576181  0.89295913    -0.03800
C1015       C  0.99965117  0.23731405  0.87666890     0.04800
C1016       C  0.98323887  0.25634068  0.86079029     0.02900
H1017       H  0.03201073  0.24887309  0.90803447     0.08000
H1018       H  0.96780014  0.25003725  0.84531266     0.06800
N1019       N  0.68368646  0.08637566  0.91575798    -0.27500
N1020       N  0.65839519  0.07371362  0.90793309    -0.35400
C1021       C  0.63597584  0.08261301  0.92386075     0.00800
C1022       C  0.64767062  0.10216986  0.94228987     0.06800
C1023       C  0.67791214  0.10415744  0.93656589    -0.06300
H1024       H  0.61277755  0.07596225  0.92171799     0.07500
H1025       H  0.69454903  0.11731959  0.94690264     0.08700
Cu1026     Cu  0.65502849  0.04629292  0.87513666     0.44200
Cu1027     Cu  0.72509538  0.07798311  0.89854466     0.42000
Cu1028     Cu  0.72469668  0.02306132  0.84580105     0.43900
N1029       N  0.65760784  0.01943970  0.84192533    -0.34900
N1030       N  0.68320944  0.00960520  0.83204274    -0.29200
C1031       C  0.67744146  0.99191823  0.81119498    -0.05300
C1032       C  0.64676908  0.99109324  0.80755622     0.06900
C1033       C  0.63484383  0.00885515  0.82725765     0.00700
H1034       H  0.69435932  0.98128208  0.79909066     0.08400
H1035       H  0.61138740  0.01351401  0.83083666     0.07500
N1036       N  0.76321352  0.04279316  0.86037515    -0.36400
N1037       N  0.76349502  0.06292249  0.87953072    -0.28600
C1038       C  0.79209333  0.07039046  0.88481270    -0.03800
C1039       C  0.81048304  0.05431890  0.86802781     0.04800
C1040       C  0.79153116  0.03703101  0.85285370     0.02900
H1041       H  0.79901485  0.08573837  0.90016259     0.08000
H1042       H  0.79787281  0.02085257  0.83796903     0.06800
N1043       N  0.96484355  0.36730309  0.66818608    -0.27500
N1044       N  0.97533957  0.39329438  0.65959875    -0.35400
C1045       C  0.96460522  0.41537949  0.67506005     0.00800
C1046       C  0.94610650  0.40268456  0.69392940     0.06800
C1047       C  0.94666148  0.37222586  0.68892596    -0.06300
H1048       H  0.96941960  0.43897411  0.67242095     0.07500
H1049       H  0.93514979  0.35484225  0.69985259     0.08700
Cu1050     Cu  0.00266309  0.39762918  0.62647826     0.44200
Cu1051     Cu  0.97682460  0.32603096  0.65241082     0.42000
Cu1052     Cu  0.02939099  0.32751634  0.59864799     0.43900
N1053       N  0.02940949  0.39485280  0.59288069    -0.34900
N1054       N  0.04006073  0.36925351  0.58360859    -0.29200
C1055       C  0.05747339  0.37485167  0.56255262    -0.05300
C1056       C  0.05741516  0.40536128  0.55805526     0.06900
C1057       C  0.03933023  0.41743959  0.57752943     0.00700
H1058       H  0.06886373  0.35786723  0.55106856     0.08400
H1059       H  0.03421652  0.44089731  0.58060991     0.07500
N1060       N  0.01337117  0.28825754  0.61513328    -0.36400
N1061       N  0.99390624  0.28762485  0.63479120    -0.28600
C1062       C  0.98766458  0.25888351  0.64072601    -0.03800
C1063       C  0.00394319  0.24064391  0.62391974     0.04800
C1064       C  0.02001957  0.25999714  0.60797869     0.02900
H1065       H  0.97229548  0.25178041  0.65601490     0.08000
H1066       H  0.03531374  0.25398863  0.59227726     0.06800
O1067       O  0.99909182  0.09574622  0.64332118    -0.73200
O1068       O  0.00391713  0.00552718  0.64295275    -0.74200
O1069       O  0.04633760  0.05356793  0.64276897    -0.62800
O1070       O  0.95678639  0.04831937  0.64418667    -0.71200
O1071       O  0.95607603  0.05160874  0.60050391    -0.70800
O1072       O  0.04626785  0.04947094  0.59950955    -0.62000
O1073       O  0.00039730  0.00576140  0.59931253    -0.74500
O1074       O  0.00285359  0.09572881  0.59998888    -0.73300
Cu1075     Cu  0.00154284  0.05073428  0.64482682     1.04600
Cu1076     Cu  0.00128471  0.05067719  0.59829362     1.04300
C1077       C  0.00138861  0.11020857  0.62165992     0.93000
C1078       C  0.00243490  0.99142516  0.62101614     0.92100
C1079       C  0.06076983  0.05201317  0.62109229     0.84300
C1080       C  0.94227150  0.04964537  0.62256505     0.90600
N1081       N  0.68506488  0.08158202  0.57979264    -0.27500
N1082       N  0.65956319  0.07515895  0.59185290    -0.35400
C1083       C  0.63673187  0.08704236  0.57806873     0.00800
C1084       C  0.64855578  0.10218176  0.55669794     0.06800
C1085       C  0.67922221  0.09841620  0.55839144    -0.06300
H1086       H  0.61333692  0.08530271  0.58351131     0.07500
H1087       H  0.69599971  0.10679863  0.54484338     0.08700
Cu1088     Cu  0.65697239  0.05158095  0.62699425     0.44200
Cu1089     Cu  0.72646772  0.06665858  0.59269924     0.42000
Cu1090     Cu  0.72700970  0.02744233  0.65549495     0.43900
N1091       N  0.65986228  0.02528346  0.66057979    -0.34900
N1092       N  0.68543959  0.01519914  0.67030939    -0.29200
C1093       C  0.67952544  0.99652811  0.69051750    -0.05300
C1094       C  0.64878763  0.99531229  0.69387553     0.06900
C1095       C  0.63702190  0.01392300  0.67471804     0.00700
H1096       H  0.69634510  0.98495445  0.70203007     0.08400
H1097       H  0.61356097  0.01815968  0.67080081     0.07500
N1098       N  0.76534213  0.04028384  0.63531561    -0.36400
N1099       N  0.76509022  0.05275932  0.61167779    -0.28600
C1100       C  0.79347612  0.05666650  0.60348177    -0.03800
C1101       C  0.81261067  0.04677739  0.62313835     0.04800
C1102       C  0.79391240  0.03665153  0.64306772     0.02900
H1103       H  0.79968611  0.06638942  0.58471042     0.08000
H1104       H  0.80054489  0.02746377  0.66192588     0.06800
N1105       N  0.03574121  0.73339056  0.66772979    -0.27500
N1106       N  0.02653613  0.70752596  0.65787346    -0.35400
C1107       C  0.03777226  0.68506617  0.67261621     0.00800
C1108       C  0.05533183  0.69748897  0.69227029     0.06800
C1109       C  0.05369348  0.72810875  0.68850669    -0.06300
H1110       H  0.03400058  0.66146576  0.66893695     0.07500
H1111       H  0.06430539  0.74532624  0.70028133     0.08700
Cu1112     Cu  0.00058006  0.70426649  0.62390789     0.44200
Cu1113     Cu  0.02272793  0.77478543  0.65323436     0.42000
Cu1114     Cu  0.98292891  0.77493153  0.59135566     0.43900
N1115       N  0.97507196  0.70765613  0.58968426    -0.34900
N1116       N  0.96750756  0.73341431  0.57855317    -0.29200
C1117       C  0.94935318  0.72786906  0.55791379    -0.05300
C1118       C  0.94591692  0.69716725  0.55563665     0.06900
C1119       C  0.96263355  0.68503278  0.57595381     0.00700
H1120       H  0.93989820  0.74489345  0.54518924     0.08400
H1121       H  0.96506842  0.66151332  0.58074952     0.07500
N1122       N  0.99758280  0.81360630  0.61021814    -0.36400
N1123       N  0.00957332  0.81355130  0.63400585    -0.28600
C1124       C  0.01307984  0.84201885  0.64216704    -0.03800
C1125       C  0.00372854  0.86115690  0.62221857     0.04800
C1126       C  0.99432980  0.84214159  0.60216878     0.02900
H1127       H  0.02165087  0.84820364  0.66134662     0.08000
H1128       H  0.98547127  0.84851831  0.58313352     0.06800
N1129       N  0.31861438  0.09091955  0.66236371    -0.27500
N1130       N  0.34398621  0.07867540  0.65421132    -0.35400
C1131       C  0.36633933  0.08739070  0.67028632     0.00800
C1132       C  0.35447134  0.10634871  0.68915790     0.06800
C1133       C  0.32423287  0.10822585  0.68349828    -0.06300
H1134       H  0.38954683  0.08076521  0.66814404     0.07500
H1135       H  0.30742293  0.12069451  0.69429405     0.08700
Cu1136     Cu  0.34711217  0.05117888  0.62131268     0.44200
Cu1137     Cu  0.27712582  0.08162693  0.64589355     0.42000
Cu1138     Cu  0.27667403  0.02336100  0.59622111     0.43900
N1139       N  0.34363187  0.02309839  0.58882561    -0.34900
N1140       N  0.31793018  0.01165730  0.58062465    -0.29200
C1141       C  0.32318769  0.99329206  0.56011692    -0.05300
C1142       C  0.35358338  0.99360414  0.55490251     0.06900
C1143       C  0.36590001  0.01280216  0.57336619     0.00700
H1144       H  0.30606004  0.98114847  0.54944245     0.08400
H1145       H  0.38934096  0.01842871  0.57571749     0.07500
N1146       N  0.23821429  0.04269282  0.61146942    -0.36400
N1147       N  0.23835722  0.06439120  0.62923952    -0.28600
C1148       C  0.20990604  0.07203446  0.63487349    -0.03800
C1149       C  0.19105418  0.05430391  0.61988469     0.04800
C1150       C  0.20969365  0.03597634  0.60527165     0.02900
H1151       H  0.20341480  0.08894593  0.64906418     0.08000
H1152       H  0.20302402  0.01883814  0.59136613     0.06800
O1153       O  0.09789740  0.41014708  0.52809514    -0.73200
O1154       O  0.14301400  0.45313454  0.97095035    -0.74200
O1155       O  0.14340196  0.45497825  0.52681922    -0.62800
O1156       O  0.09754540  0.40819757  0.97246987    -0.71200
O1157       O  0.06273859  0.44380927  0.97155046    -0.70800
O1158       O  0.10812916  0.49013308  0.52653848    -0.62000
O1159       O  0.10768061  0.48821849  0.97000438    -0.74500
O1160       O  0.06312403  0.44581187  0.52795526    -0.73300
Cu1161     Cu  0.12170614  0.43039566  0.99960757     1.04600
Cu1162     Cu  0.08421008  0.46826086  0.99897650     1.04300
C1163       C  0.07354886  0.42124281  0.53708396     0.93000
C1164       C  0.13223420  0.47728866  0.96128710     0.92100
C1165       C  0.13278411  0.47969713  0.53547648     0.84300
C1166       C  0.07299910  0.41871489  0.96340241     0.90600
O1167       O  0.56225610  0.15295863  0.52828949    -0.73200
O1168       O  0.60671971  0.10770536  0.97190970    -0.74200
O1169       O  0.60697139  0.10822453  0.52823322    -0.62800
O1170       O  0.56174151  0.15223718  0.97196093    -0.71200
O1171       O  0.59638940  0.18803775  0.97191210    -0.70800
O1172       O  0.64260894  0.14303452  0.52719274    -0.62000
O1173       O  0.64184007  0.14303787  0.97164924    -0.74500
O1174       O  0.59726124  0.18839764  0.52748330    -0.73300
Cu1175     Cu  0.58318522  0.12902895  0.00012545     1.04600
Cu1176     Cu  0.62075588  0.16685480  0.99955640     1.04300
C1177       C  0.57274669  0.17787874  0.53662976     0.93000
C1178       C  0.63130997  0.11833599  0.96294402     0.92100
C1179       C  0.63195673  0.11859387  0.53642636     0.84300
C1180       C  0.57186624  0.17709513  0.96316968     0.90600
O1181       O  0.93634852  0.65602487  0.97046431    -0.73200
O1182       O  0.89402720  0.61067262  0.52840477    -0.74200
O1183       O  0.89216986  0.61084023  0.97185411    -0.62800
O1184       O  0.93854852  0.65582348  0.52695617    -0.71200
O1185       O  0.90374967  0.69144047  0.52734342    -0.70800
O1186       O  0.85627199  0.64531642  0.97327193    -0.62000
O1187       O  0.85860342  0.64563998  0.52913052    -0.74500
O1188       O  0.90098583  0.69104846  0.97149012    -0.73300
Cu1189     Cu  0.91650802  0.63212636  0.99940966     1.04600
Cu1190     Cu  0.87865333  0.66957934  0.00039164     1.04300
C1191       C  0.92521842  0.68052224  0.96175357     0.93000
C1192       C  0.86954574  0.62106245  0.53781256     0.92100
C1193       C  0.86706329  0.62106492  0.96376976     0.84300
C1194       C  0.92857827  0.68075309  0.53570407     0.90600
O1195       O  0.43830932  0.94181751  0.52509263    -0.73200
O1196       O  0.39272085  0.98552653  0.96854665    -0.74200
O1197       O  0.39400239  0.98691042  0.52496620    -0.62800
O1198       O  0.43703250  0.94041234  0.96855259    -0.71200
O1199       O  0.40178581  0.90526382  0.96997005    -0.70800
O1200       O  0.35830036  0.95218833  0.52584572    -0.62000
O1201       O  0.35689522  0.95096921  0.97009294    -0.74500
O1202       O  0.40316704  0.90653182  0.52584222    -0.73300
Cu1203     Cu  0.41676659  0.96487690  0.99674816     1.04600
Cu1204     Cu  0.37880118  0.92750835  0.99799757     1.04300
C1205       C  0.42785326  0.91732439  0.53438880     0.93000
C1206       C  0.36768254  0.97513466  0.96042336     0.92100
C1207       C  0.36936893  0.97681108  0.53426404     0.84300
C1208       C  0.42611157  0.91565022  0.96027717     0.90600
O1209       O  0.06325300  0.65636880  0.77811013    -0.73200
O1210       O  0.10864370  0.61336191  0.72073202    -0.74200
O1211       O  0.10899438  0.61302568  0.77737608    -0.62800
O1212       O  0.06259294  0.65656346  0.72149394    -0.71200
O1213       O  0.09652422  0.69303054  0.72166891    -0.70800
O1214       O  0.14346785  0.64897858  0.77721854    -0.62000
O1215       O  0.14317965  0.64923363  0.72110390    -0.74500
O1216       O  0.09721699  0.69278894  0.77754720    -0.73300
Cu1217     Cu  0.08470412  0.63354200  0.74941535     1.04600
Cu1218     Cu  0.12132093  0.67225361  0.74935141     1.04300
C1219       C  0.07326131  0.68127556  0.78694558     0.93000
C1220       C  0.13292285  0.62468993  0.71175942     0.92100
C1221       C  0.13318175  0.62435635  0.78642027     0.84300
C1222       C  0.07227234  0.68162121  0.71276633     0.90600
O1223       O  0.39407236  0.10909506  0.77587495    -0.73200
O1224       O  0.43987376  0.15516439  0.72097658    -0.74200
O1225       O  0.43883005  0.15373228  0.77748365    -0.62800
O1226       O  0.39498611  0.11068159  0.71937178    -0.71200
O1227       O  0.35978217  0.14590825  0.71996927    -0.70800
O1228       O  0.40380977  0.18914742  0.77729146    -0.62000
O1229       O  0.40510508  0.19082419  0.72158084    -0.74500
O1230       O  0.35870095  0.14415704  0.77568547    -0.73300
Cu1231     Cu  0.41819663  0.13091670  0.74841042     1.04600
Cu1232     Cu  0.38064396  0.16873376  0.74863577     1.04300
C1233       C  0.36923758  0.11947159  0.78448903     0.93000
C1234       C  0.42962854  0.18014690  0.71257351     0.92100
C1235       C  0.42801209  0.17815995  0.78660687     0.84300
C1236       C  0.37050669  0.12164101  0.71051637     0.90600
O1237       O  0.89349351  0.48677037  0.72380143    -0.73200
O1238       O  0.93792663  0.44218880  0.78038154    -0.74200
O1239       O  0.93904597  0.44302635  0.72393015    -0.62800
O1240       O  0.89227140  0.48598823  0.78033107    -0.71200
O1241       O  0.85762116  0.45024875  0.77943043    -0.70800
O1242       O  0.90476168  0.40691271  0.72333459    -0.62000
O1243       O  0.90380928  0.40592067  0.77914338    -0.74500
O1244       O  0.85854046  0.45128341  0.72346677    -0.73300
Cu1245     Cu  0.91687197  0.46575002  0.75215260     1.04600
Cu1246     Cu  0.87996017  0.42733462  0.75130895     1.04300
C1247       C  0.86910357  0.47597526  0.71466682     0.93000
C1248       C  0.92787503  0.41705668  0.78863441     0.92100
C1249       C  0.92920377  0.41824859  0.71472160     0.84300
C1250       C  0.86770848  0.47483552  0.78885933     0.90600
O1251       O  0.64241583  0.95298712  0.72186639    -0.73200
O1252       O  0.59551583  0.90593494  0.77576229    -0.74200
O1253       O  0.59690396  0.90776362  0.72004420    -0.62800
O1254       O  0.64116421  0.95095949  0.77738497    -0.71200
O1255       O  0.60582517  0.98606559  0.77807231    -0.70800
O1256       O  0.56202031  0.94331298  0.71993365    -0.62000
O1257       O  0.56081762  0.94164982  0.77633539    -0.74500
O1258       O  0.60691079  0.98791973  0.72187237    -0.73300
Cu1259     Cu  0.62022330  0.92815006  0.74874384     1.04600
Cu1260     Cu  0.58266499  0.96596205  0.74905551     1.04300
C1261       C  0.63196358  0.97789984  0.71345893     0.93000
C1262       C  0.57086518  0.91654207  0.78462357     0.92100
C1263       C  0.57257644  0.91872738  0.71092683     0.84300
C1264       C  0.63045793  0.97528817  0.78672945     0.90600
C1265       C  0.11019597  0.06301502  0.59818935    -0.02100
C1266       C  0.09434669  0.05315123  0.62099490     0.07600
C1267       C  0.11109664  0.04445180  0.64366914    -0.02200
C1268       C  0.14266361  0.04478854  0.64308680    -0.02200
C1269       C  0.15796908  0.05402956  0.62026647     0.07700
C1270       C  0.14178479  0.06313826  0.59789708    -0.02400
Br1271     Br  0.16320081  0.07700205  0.56703315    -0.01000
Br1272     Br  0.08971055  0.07855122  0.56741928    -0.01000
Br1273     Br  0.16527116  0.03117135  0.67336593    -0.01000
Br1274     Br  0.09211232  0.03138077  0.67605421    -0.01000
C1275       C  0.97930089  0.94188224  0.60958544    -0.02100
C1276       C  0.00313979  0.95823864  0.62074966     0.07600
C1277       C  0.02768136  0.94279051  0.63171648    -0.02200
C1278       C  0.02823844  0.91117661  0.63194720    -0.02200
C1279       C  0.00342225  0.89463607  0.62224182     0.07700
C1280       C  0.97857632  0.91041110  0.61171038    -0.02400
Br1281     Br  0.94192759  0.88984406  0.60240301    -0.01000
Br1282     Br  0.94774042  0.96234007  0.59070548    -0.01000
Br1283     Br  0.06417431  0.89133089  0.64415183    -0.01000
Br1284     Br  0.06194460  0.96504642  0.64420393    -0.01000
C1285       C  0.89392982  0.02357024  0.63260770    -0.02100
C1286       C  0.90921016  0.04905905  0.62315338     0.07600
C1287       C  0.89280863  0.07424360  0.61469690    -0.02200
C1288       C  0.86128416  0.07402843  0.61578518    -0.02200
C1289       C  0.84587201  0.04759027  0.62317035     0.07700
C1290       C  0.86247517  0.02211983  0.63108495    -0.02400
Br1291     Br  0.84280882  0.98428526  0.63790125    -0.01000
Br1292     Br  0.91584919  0.99081769  0.64832051    -0.01000
Br1293     Br  0.83981755  0.11094238  0.60931012    -0.01000
Br1294     Br  0.91361991  0.10987157  0.60329619    -0.01000
C1295       C  0.01482410  0.19093296  0.64455926    -0.02100
C1296       C  0.00390377  0.20748968  0.62301422     0.07600
C1297       C  0.99323375  0.19244092  0.60052172    -0.02200
C1298       C  0.99266881  0.16083156  0.59974303    -0.02200
C1299       C  0.00273425  0.14380331  0.62178097     0.07700
C1300       C  0.01459219  0.15933470  0.64395515    -0.02400
Br1301     Br  0.03305084  0.13824021  0.67310596    -0.01000
Br1302     Br  0.03165346  0.21179365  0.67452833    -0.01000
Br1303     Br  0.97748514  0.14200445  0.56807599    -0.01000
Br1304     Br  0.97816798  0.21537086  0.57097357    -0.01000
C1305       C  0.89166067  0.06900519  0.85041591    -0.02100
C1306       C  0.90676353  0.05111279  0.86934048     0.07600
C1307       C  0.88975581  0.03405392  0.88757330    -0.02200
C1308       C  0.85824416  0.03538102  0.88716614    -0.02200
C1309       C  0.84346828  0.05313896  0.86831579     0.07700
C1310       C  0.86010626  0.06947749  0.84965992    -0.02400
Br1311     Br  0.83941177  0.09261005  0.82310684    -0.01000
Br1312     Br  0.91359752  0.09456207  0.82638482    -0.01000
Br1313     Br  0.83501825  0.01206134  0.91195527    -0.01000
Br1314     Br  0.90899965  0.00739587  0.91240537    -0.01000
C1315       C  0.02428049  0.18904082  0.86422639    -0.02100
C1316       C  0.99987427  0.20426134  0.87572738     0.07600
C1317       C  0.97537614  0.18791884  0.88579759    -0.02200
C1318       C  0.97538536  0.15639565  0.88456996    -0.02200
C1319       C  0.99976970  0.14115570  0.87299612     0.07700
C1320       C  0.02417839  0.15751898  0.86274481    -0.02400
Br1321     Br  0.05793869  0.13672462  0.84747775    -0.01000
Br1322     Br  0.05757425  0.21146718  0.85000908    -0.01000
Br1323     Br  0.94149643  0.13411243  0.89796496    -0.01000
Br1324     Br  0.94202414  0.20874856  0.90168402    -0.01000
C1325       C  0.10704993  0.06948682  0.88984004    -0.02100
C1326       C  0.09189243  0.04991884  0.87235657     0.07600
C1327       C  0.10876982  0.03201848  0.85471191    -0.02200
C1328       C  0.14030874  0.03348366  0.85480569    -0.02200
C1329       C  0.15523264  0.05216755  0.87287528     0.07700
C1330       C  0.13862553  0.07033064  0.89021820    -0.02400
Br1331     Br  0.15937145  0.09689762  0.91408020    -0.01000
Br1332     Br  0.08493618  0.09671527  0.91221571    -0.01000
Br1333     Br  0.16330939  0.00997862  0.83004281    -0.01000
Br1334     Br  0.08916899  0.00429932  0.83106385    -0.01000
C1335       C  0.96994058  0.91005987  0.86204807    -0.02100
C1336       C  0.99509271  0.89341144  0.87048085     0.07600
C1337       C  0.02114172  0.90860979  0.87895754    -0.02200
C1338       C  0.02200793  0.94017413  0.87898663    -0.02200
C1339       C  0.99705355  0.95672544  0.87022790     0.07700
C1340       C  0.97099390  0.94165285  0.86180856    -0.02400
Br1341     Br  0.93644408  0.96439228  0.85063389    -0.01000
Br1342     Br  0.93433386  0.88968575  0.84996336    -0.01000
Br1343     Br  0.05757990  0.96088448  0.89073611    -0.01000
Br1344     Br  0.05536301  0.88636443  0.89160090    -0.01000
C1345       C  0.60648931  0.51862727  0.89158001    -0.02100
C1346       C  0.59111595  0.54357317  0.88117318     0.07600
C1347       C  0.60737931  0.56840385  0.87162929    -0.02200
C1348       C  0.63891745  0.56811608  0.87207131    -0.02200
C1349       C  0.65435660  0.54262853  0.88142407     0.07700
C1350       C  0.63806458  0.51792782  0.89127566    -0.02400
Br1351     Br  0.65899561  0.48352072  0.90518621    -0.01000
Br1352     Br  0.58432158  0.48535888  0.90614376    -0.01000
Br1353     Br  0.66084855  0.60248544  0.85922690    -0.01000
Br1354     Br  0.58635141  0.60330701  0.85873673    -0.01000
C1355       C  0.47060914  0.43846752  0.89025592    -0.02100
C1356       C  0.49476321  0.45305910  0.87754631     0.07600
C1357       C  0.51703479  0.43576120  0.86484354    -0.02200
C1358       C  0.51571994  0.40421384  0.86568339    -0.02200
C1359       C  0.49186389  0.38974843  0.87871193     0.07700
C1360       C  0.46900734  0.40689470  0.89053005    -0.02400
Br1361     Br  0.43554195  0.38699244  0.90717342    -0.01000
Br1362     Br  0.43890573  0.46160483  0.90633268    -0.01000
Br1363     Br  0.54621004  0.38066179  0.84831267    -0.01000
Br1364     Br  0.54989828  0.45503537  0.84675255    -0.01000
C1365       C  0.39058329  0.52810991  0.85828665    -0.02100
C1366       C  0.40705556  0.54992278  0.87230956     0.07600
C1367       C  0.39181359  0.57311998  0.88569668    -0.02200
C1368       C  0.36029252  0.57393396  0.88577355    -0.02200
C1369       C  0.34388088  0.55161404  0.87247582     0.07700
C1370       C  0.35902893  0.52881315  0.85860597    -0.02400
Br1371     Br  0.33647258  0.49864509  0.83988256    -0.01000
Br1372     Br  0.41104559  0.49660681  0.83934052    -0.01000
Br1373     Br  0.33951900  0.60504203  0.90494302    -0.01000
Br1374     Br  0.41404877  0.60463514  0.90302001    -0.01000
C1375       C  0.48194759  0.68516564  0.85553015    -0.02100
C1376       C  0.49938654  0.70194855  0.87329779     0.07600
C1377       C  0.51718943  0.68709029  0.89213095    -0.02200
C1378       C  0.51761688  0.65546917  0.89322837    -0.02200
C1379       C  0.50023927  0.63844608  0.87528929     0.07700
C1380       C  0.48217516  0.65358443  0.85656094    -0.02400
Br1381     Br  0.45588041  0.63149721  0.83332223    -0.01000
Br1382     Br  0.45706645  0.70568887  0.83014376    -0.01000
Br1383     Br  0.54294612  0.63589773  0.91887655    -0.01000
Br1384     Br  0.54153059  0.71028758  0.91607317    -0.01000
C1385       C  0.39255783  0.52221824  0.63118467    -0.02100
C1386       C  0.40870310  0.54822458  0.62433300     0.07600
C1387       C  0.39331184  0.57476288  0.61788770    -0.02200
C1388       C  0.36178311  0.57540881  0.61828924    -0.02200
C1389       C  0.34546770  0.54944452  0.62526588     0.07700
C1390       C  0.36098238  0.52283844  0.63179860    -0.02400
Br1391     Br  0.33918181  0.48763179  0.64293442    -0.01000
Br1392     Br  0.41381368  0.48563832  0.63924124    -0.01000
Br1393     Br  0.34117113  0.61171394  0.60824481    -0.01000
Br1394     Br  0.41560821  0.61043957  0.60891262    -0.01000
C1395       C  0.51662527  0.65793943  0.60681063    -0.02100
C1396       C  0.49967895  0.64201627  0.62593506     0.07600
C1397       C  0.48241659  0.65829537  0.64454539    -0.02200
C1398       C  0.48252898  0.68988654  0.64421069    -0.02200
C1399       C  0.49934088  0.70543403  0.62513751     0.07700
C1400       C  0.51620890  0.68949871  0.60638941    -0.02400
Br1401     Br  0.53938376  0.71119289  0.58043297    -0.01000
Br1402     Br  0.54183701  0.63722846  0.58166881    -0.01000
Br1403     Br  0.45900446  0.71214502  0.66950017    -0.01000
Br1404     Br  0.45700793  0.63792230  0.66971853    -0.01000
C1405       C  0.60923427  0.52442673  0.62454354    -0.02100
C1406       C  0.59306253  0.55109015  0.62871498     0.07600
C1407       C  0.60847275  0.57803324  0.63385525    -0.02200
C1408       C  0.64006775  0.57845436  0.63419491    -0.02200
C1409       C  0.65637532  0.55181549  0.62958642     0.07700
C1410       C  0.64079593  0.52472249  0.62497841    -0.02400
Br1411     Br  0.66244888  0.48806324  0.61812061    -0.01000
Br1412     Br  0.58791414  0.48736713  0.61861167    -0.01000
Br1413     Br  0.66086532  0.61531975  0.64216528    -0.01000
Br1414     Br  0.58620235  0.61431644  0.64056415    -0.01000
C1415       C  0.48520289  0.41003253  0.60220451    -0.02100
C1416       C  0.49847047  0.39298318  0.62239000     0.07600
C1417       C  0.51216920  0.40750955  0.64387397    -0.02200
C1418       C  0.51304782  0.43907746  0.64507628    -0.02200
C1419       C  0.49989058  0.45649468  0.62472403     0.07700
C1420       C  0.48547789  0.44159638  0.60345076    -0.02400
Br1421     Br  0.46392894  0.46367546  0.57660876    -0.01000
Br1422     Br  0.46554892  0.38991536  0.57322775    -0.01000
Br1423     Br  0.53351807  0.45767506  0.67442451    -0.01000
Br1424     Br  0.53087978  0.38393196  0.67128181    -0.01000
loop_ 
_geom_bond_atom_site_label_1 
_geom_bond_atom_site_label_2 
_geom_bond_distance 
_geom_bond_site_symmetry_2 
_ccdc_geom_bond_type 
N1            N2   1.323       .  A
N1            C5   1.346       .  A
N1           Cu9   2.080       .  S
N2            C3   1.345       .  A
N2           Cu8   2.070       .  S
C3            C4   1.381       .  A
C3            H6   1.082       .  S
C4            C5   1.383       .  A
C4          C465   1.466       .  S
C5            H7   1.082       .  S
Cu8          N11   2.070       .  S
Cu9          N19   2.080       .  S
Cu10         N12   2.073       .  S
Cu10         N18   2.073       .  S
N11          N12   1.322       .  A
N11          C15   1.345       .  A
N12          C13   1.345       .  A
C13          C14   1.382       .  A
C13          H16   1.082       .  S
C14          C15   1.382       .  A
C14         C522   1.466       .  S
C15          H17   1.082       .  S
N18          N19   1.323       .  A
N18          C22   1.345       .  A
N19          C20   1.347       .  A
C20          C21   1.384       .  A
C20          H23   1.082       .  S
C21          C22   1.382       .  A
C21         C704   1.478       .  S
C22          H24   1.082       .  S
O25         Cu33   2.015       .  S
O25          C35   1.278       .  A
O26         Cu33   2.016       .  S
O26          C36   1.278       .  A
O27         Cu33   2.002       .  S
O27          C37   1.276       .  A
O28         Cu33   2.001       .  S
O28          C38   1.276       .  A
O29         Cu34   2.018       .  S
O29          C38   1.279       .  A
O30         Cu34   2.017       .  S
O30          C37   1.279       .  A
O31         Cu34   2.011       .  S
O31          C36   1.277       .  A
O32         Cu34   2.005       .  S
O32          C35   1.276       .  A
Cu33        Cu34   2.370       .  S
C35         C674   1.472       .  S
C36         C694   1.475       .  S
C37         C707   1.493       .  S
C38         C684   1.488       .  S
N39          N40   1.323       .  A
N39          C43   1.345       .  A
N39         Cu47   2.071       .  S
N40          C41   1.346       .  A
N40         Cu46   2.082       .  S
C41          C42   1.383       .  A
C41          H44   1.082       .  S
C42          C43   1.381       .  A
C42         C535   1.467       .  S
C43          H45   1.082       .  S
Cu46         N49   2.083       .  S
Cu47         N57   2.071       .  S
Cu48         N50   2.082       .  S
Cu48         N56   2.082       .  S
N49          N50   1.323       .  A
N49          C53   1.348       .  A
N50          C51   1.346       .  A
C51          C52   1.383       .  A
C51          H54   1.082       .  S
C52          C53   1.384       .  A
C52         C480   1.472       .  S
C53          H55   1.082       .  S
N56          N57   1.322       .  A
N56          C60   1.347       .  A
N57          C58   1.345       .  A
C58          C59   1.383       .  A
C58          H61   1.082       .  S
C59          C60   1.386       .  A
C59         C697   1.483       .  S
C60          H62   1.082       .  S
N63          N64   1.323       .  A
N63          C67   1.344       .  A
N63         Cu71   2.072       .  S
N64          C65   1.347       .  A
N64         Cu70   2.080       .  S
C65          C66   1.383       .  A
C65          H68   1.082       .  S
C66          C67   1.381       .  A
C66         C551   1.467       .  S
C67          H69   1.082       .  S
Cu70         N73   2.080       .  S
Cu71         N81   2.072       .  S
Cu72         N74   2.073       .  S
Cu72         N80   2.073       .  S
N73          N74   1.323       .  A
N73          C77   1.346       .  A
N74          C75   1.345       .  A
C75          C76   1.382       .  A
C75          H78   1.082       .  S
C76          C77   1.383       .  A
C76         C493   1.468       .  S
C77          H79   1.082       .  S
N80          N81   1.323       .  A
N80          C84   1.345       .  A
N81          C82   1.345       .  A
C82          C83   1.381       .  A
C82          H85   1.082       .  S
C83          C84   1.381       .  A
C83         C687   1.474       .  S
C84          H86   1.082       .  S
N87          N88   1.323       .  A
N87          C91   1.346       .  A
N87         Cu95   2.078       .  S
N88          C89   1.346       .  A
N88         Cu94   2.080       .  S
C89          C90   1.383       .  A
C89          H92   1.082       .  S
C90          C91   1.383       .  A
C90         C508   1.471       .  S
C91          H93   1.082       .  S
Cu94         N97   2.079       .  S
Cu95        N105   2.079       .  S
Cu96         N98   2.073       .  S
Cu96        N104   2.073       .  S
N97          N98   1.323       .  A
N97         C101   1.346       .  A
N98          C99   1.345       .  A
C99         C100   1.382       .  A
C99         H102   1.082       .  S
C100        C101   1.383       .  A
C100        C453   1.468       .  S
C101        H103   1.082       .  S
N104        N105   1.323       .  A
N104        C108   1.345       .  A
N105        C106   1.346       .  A
C106        C107   1.385       .  A
C106        H109   1.082       .  S
C107        C108   1.383       .  A
C107        C677   1.481       .  S
C108        H110   1.082       .  S
N111        N112   1.323       .  A
N111        C115   1.347       .  A
N111       Cu119   2.081       .  S
N112        C113   1.346       .  A
N112       Cu118   2.077       .  S
C113        C114   1.383       .  A
C113        H116   1.082       .  S
C114        C115   1.383       .  A
C114        C550   1.469       .  S
C115        H117   1.082       .  S
Cu118       N121   2.077       .  S
Cu119       N129   2.082       .  S
Cu120       N122   2.081       .  S
Cu120       N128   2.082       .  S
N121        N122   1.323       .  A
N121        C125   1.346       .  A
N122        C123   1.347       .  A
C123        C124   1.383       .  A
C123        H126   1.082       .  S
C124        C125   1.383       .  A
C124        C496   1.470       .  S
C125        H127   1.082       .  S
N128        N129   1.323       .  A
N128        C132   1.347       .  A
N129        C130   1.347       .  A
C130        C131   1.383       .  A
C130        H133   1.082       .  S
C131        C132   1.383       .  A
C131        C664   1.480       .  S
C132        H134   1.082       .  S
O135       Cu143   2.014       .  S
O135        C145   1.278       .  A
O136       Cu143   2.011       .  S
O136        C146   1.278       .  A
O137       Cu143   2.007       .  S
O137        C147   1.277       .  A
O138       Cu143   2.010       .  S
O138        C148   1.277       .  A
O139       Cu144   2.004       .  S
O139        C148   1.277       .  A
O140       Cu144   2.013       .  S
O140        C147   1.278       .  A
O141       Cu144   2.019       .  S
O141        C146   1.279       .  A
O142       Cu144   2.017       .  S
O142        C145   1.279       .  A
Cu143      Cu144   2.373       .  S
C145        C644   1.483       .  S
C146        C667   1.489       .  S
C147        C634   1.475       .  S
C148        C654   1.477       .  S
N149        N150   1.322       .  A
N149        C153   1.345       .  A
N149       Cu157   2.070       .  S
N150        C151   1.345       .  A
N150       Cu156   2.075       .  S
C151        C152   1.383       .  A
C151        H154   1.082       .  S
C152        C153   1.382       .  A
C152        C509   1.467       .  S
C153        H155   1.082       .  S
Cu156       N159   2.075       .  S
Cu157       N167   2.071       .  S
Cu158       N160   2.073       .  S
Cu158       N166   2.073       .  S
N159        N160   1.322       .  A
N159        C163   1.345       .  A
N160        C161   1.345       .  A
C161        C162   1.382       .  A
C161        H164   1.082       .  S
C162        C163   1.383       .  A
C162        C452   1.467       .  S
C163        H165   1.082       .  S
N166        N167   1.323       .  A
N166        C170   1.345       .  A
N167        C168   1.345       .  A
C168        C169   1.381       .  A
C168        H171   1.082       .  S
C169        C170   1.381       .  A
C169        C657   1.474       .  S
C170        H172   1.082       .  S
N173        N174   1.323       .  A
N173        C177   1.344       .  A
N173       Cu181   2.073       .  S
N174        C175   1.346       .  A
N174       Cu180   2.073       .  S
C175        C176   1.383       .  A
C175        H178   1.082       .  S
C176        C177   1.382       .  A
C176        C523   1.466       .  S
C177        H179   1.082       .  S
Cu180       N183   2.073       .  S
Cu181       N191   2.074       .  S
Cu182       N184   2.076       .  S
Cu182       N190   2.077       .  S
N183        N184   1.323       .  A
N183        C187   1.345       .  A
N184        C185   1.345       .  A
C185        C186   1.382       .  A
C185        H188   1.082       .  S
C186        C187   1.382       .  A
C186        C468   1.466       .  S
C187        H189   1.082       .  S
N190        N191   1.323       .  A
N190        C194   1.346       .  A
N191        C192   1.346       .  A
C192        C193   1.382       .  A
C192        H195   1.082       .  S
C193        C194   1.383       .  A
C193        C647   1.478       .  S
C194        H196   1.082       .  S
N197        N198   1.323       .  A
N197        C201   1.348       .  A
N197       Cu205   2.084       .  S
N198        C199   1.346       .  A
N198       Cu204   2.079       .  S
C199        C200   1.383       .  A
C199        H202   1.082       .  S
C200        C201   1.384       .  A
C200        C538   1.472       .  S
C201        H203   1.082       .  S
Cu204       N207   2.079       .  S
Cu205       N215   2.085       .  S
Cu206       N208   2.069       .  S
Cu206       N214   2.070       .  S
N207        N208   1.322       .  A
N207        C211   1.346       .  A
N208        C209   1.346       .  A
C209        C210   1.382       .  A
C209        H212   1.082       .  S
C210        C211   1.384       .  A
C210        C481   1.468       .  S
C211        H213   1.082       .  S
N214        N215   1.323       .  A
N214        C218   1.344       .  A
N215        C216   1.347       .  A
C216        C217   1.385       .  A
C216        H219   1.082       .  S
C217        C218   1.381       .  A
C217        C637   1.479       .  S
C218        H220   1.082       .  S
N221        N222   1.323       .  A
N221        C225   1.347       .  A
N221       Cu229   2.083       .  S
N222        C223   1.346       .  A
N222       Cu228   2.081       .  S
C223        C224   1.383       .  A
C223        H226   1.082       .  S
C224        C225   1.384       .  A
C224        C479   1.472       .  S
C225        H227   1.082       .  S
Cu228       N231   2.080   1_655  S
Cu229       N239   2.083       .  S
Cu230       N232   2.073       .  S
Cu230       N238   2.074       .  S
N231        N232   1.322       .  A
N231        C235   1.347       .  A
N232        C233   1.345       .  A
C233        C234   1.382       .  A
C233        H236   1.082       .  S
C234        C235   1.384       .  A
C234        C507   1.470       .  S
C235        H237   1.082       .  S
N238        N239   1.323   1_455  A
N238        C242   1.345       .  A
N239        C240   1.347       .  A
C240        C241   1.385       .  A
C240        H243   1.082       .  S
C241        C242   1.383   1_655  A
C241        C624   1.482       .  S
C242        H244   1.082       .  S
O245       Cu253   2.015   1_455  S
O245        C255   1.279       .  A
O246       Cu253   2.011       .  S
O246        C256   1.278       .  A
O247       Cu253   2.008       .  S
O247        C257   1.277   1_545  A
O248       Cu253   2.001       .  S
O248        C258   1.276       .  A
O249       Cu254   2.014   1_455  S
O249        C258   1.278   1_455  A
O250       Cu254   2.016       .  S
O250        C257   1.278   1_545  A
O251       Cu254   2.004       .  S
O251        C256   1.277       .  A
O252       Cu254   2.008   1_455  S
O252        C255   1.277       .  A
Cu253      Cu254   2.373       .  S
C255        C614   1.486       .  S
C256        C594   1.486       .  S
C257        C627   1.475       .  S
C258        C607   1.473       .  S
N259        N260   1.323       .  A
N259        C263   1.347   1_545  A
N259       Cu267   2.080       .  S
N260        C261   1.345       .  A
N260       Cu266   2.075       .  S
C261        C262   1.382   1_545  A
C261        H264   1.082       .  S
C262        C263   1.383       .  A
C262        C494   1.469       .  S
C263        H265   1.082       .  S
Cu266       N269   2.075       .  S
Cu267       N277   2.080       .  S
Cu268       N270   2.073       .  S
Cu268       N276   2.074       .  S
N269        N270   1.322       .  A
N269        C273   1.346       .  A
N270        C271   1.345       .  A
C271        C272   1.382       .  A
C271        H274   1.082       .  S
C272        C273   1.383       .  A
C272        C521   1.467       .  S
C273        H275   1.082       .  S
N276        N277   1.323       .  A
N276        C280   1.346       .  A
N277        C278   1.346       .  A
C278        C279   1.382       .  A
C278        H281   1.082       .  S
C279        C280   1.381       .  A
C279        C617   1.476       .  S
C280        H282   1.082       .  S
N283        N284   1.323       .  A
N283        C287   1.346       .  A
N283       Cu291   2.079       .  S
N284        C285   1.345       .  A
N284       Cu290   2.072       .  S
C285        C286   1.381       .  A
C285        H288   1.082       .  S
C286        C287   1.383       .  A
C286        C454   1.467       .  S
C287        H289   1.082       .  S
Cu290       N293   2.072   1_455  S
Cu291       N301   2.079       .  S
Cu292       N294   2.070       .  S
Cu292       N300   2.070       .  S
N293        N294   1.322       .  A
N293        C297   1.345       .  A
N294        C295   1.345       .  A
C295        C296   1.382       .  A
C295        H298   1.082       .  S
C296        C297   1.382       .  A
C296        C536   1.466       .  S
C297        H299   1.082       .  S
N300        N301   1.323   1_655  A
N300        C304   1.344       .  A
N301        C302   1.346       .  A
C302        C303   1.383   1_455  A
C302        H305   1.082       .  S
C303        C304   1.380       .  A
C303        C604   1.475       .  S
C304        H306   1.082       .  S
N307        N308   1.323       .  A
N307        C311   1.345       .  A
N307       Cu315   2.077       .  S
N308        C309   1.345       .  A
N308       Cu314   2.070       .  S
C309        C310   1.381       .  A
C309        H312   1.082       .  S
C310        C311   1.382       .  A
C310        C466   1.466       .  S
C311        H313   1.082       .  S
Cu314       N317   2.070       .  S
Cu315       N325   2.077       .  S
Cu316       N318   2.067       .  S
Cu316       N324   2.067       .  S
N317        N318   1.322       .  A
N317        C321   1.345       .  A
N318        C319   1.344   1_545  A
C319        C320   1.381       .  A
C319        H322   1.082       .  S
C320        C321   1.381   1_565  A
C320        C552   1.464       .  S
C321        H323   1.082       .  S
N324        N325   1.323       .  A
N324        C328   1.344       .  A
N325        C326   1.346       .  A
C326        C327   1.382       .  A
C326        H329   1.082       .  S
C327        C328   1.379       .  A
C327        C597   1.472       .  S
C328        H330   1.082       .  S
N331        N332   1.323       .  A
N331        C335   1.346       .  A
N331       Cu339   2.077       .  S
N332        C333   1.347       .  A
N332       Cu338   2.083   1_655  S
C333        C334   1.384       .  A
C333        H336   1.082       .  S
C334        C335   1.382       .  A
C334        C537   1.470       .  S
C335        H337   1.082       .  S
Cu338       N341   2.083       .  S
Cu339       N349   2.077       .  S
Cu340       N342   2.066       .  S
Cu340       N348   2.067       .  S
N341        N342   1.323       .  A
N341        C345   1.347       .  A
N342        C343   1.343       .  A
C343        C344   1.379       .  A
C343        H346   1.082       .  S
C344        C345   1.384       .  A
C344        C451   1.466       .  S
C345        H347   1.082       .  S
N348        N349   1.322   1_455  A
N348        C352   1.345       .  A
N349        C350   1.345       .  A
C350        C351   1.384   1_655  A
C350        H353   1.082       .  S
C351        C352   1.382       .  A
C351        C584   1.479       .  S
C352        H354   1.082       .  S
O355       Cu363   2.012   1_655  S
O355        C365   1.278   1_655  A
O356       Cu363   2.021       .  S
O356        C366   1.280   1_545  A
O357       Cu363   2.005       .  S
O357        C367   1.275       .  A
O358       Cu363   2.000   1_655  S
O358        C368   1.275       .  A
O359       Cu364   2.020   1_655  S
O359        C368   1.280       .  A
O360       Cu364   2.008       .  S
O360        C367   1.277       .  A
O361       Cu364   2.004       .  S
O361        C366   1.276   1_545  A
O362       Cu364   2.012       .  S
O362        C365   1.276       .  A
Cu363      Cu364   2.360       .  S
C365        C587   1.499       .  S
C366        C564   1.480       .  S
C367        C554   1.499       .  S
C368        C574   1.475       .  S
N369        N370   1.322       .  A
N369        C373   1.345       .  A
N369       Cu377   2.070       .  S
N370        C371   1.344       .  A
N370       Cu376   2.072       .  S
C371        C372   1.381       .  A
C371        H374   1.082       .  S
C372        C373   1.381       .  A
C372        C467   1.463       .  S
C373        H375   1.082       .  S
Cu376       N379   2.072       .  S
Cu377       N387   2.069       .  S
Cu378       N380   2.073       .  S
Cu378       N386   2.073       .  S
N379        N380   1.322       .  A
N379        C383   1.344       .  A
N380        C381   1.346   1_545  A
C381        C382   1.383       .  A
C381        H384   1.082       .  S
C382        C383   1.381   1_565  A
C382        C549   1.466       .  S
C383        H385   1.082       .  S
N386        N387   1.321       .  A
N386        C390   1.344       .  A
N387        C388   1.344       .  A
C388        C389   1.385       .  A
C388        H391   1.082       .  S
C389        C390   1.385       .  A
C389        C577   1.484       .  S
C390        H392   1.082       .  S
N393        N394   1.323       .  A
N393        C397   1.345       .  A
N393       Cu401   2.070       .  S
N394        C395   1.347       .  A
N394       Cu400   2.081       .  S
C395        C396   1.384       .  A
C395        H398   1.082       .  S
C396        C397   1.381       .  A
C396        C510   1.467       .  S
C397        H399   1.082       .  S
Cu400       N403   2.081   1_455  S
Cu401       N411   2.070       .  S
Cu402       N404   2.079       .  S
Cu402       N410   2.078       .  S
N403        N404   1.323       .  A
N403        C407   1.346       .  A
N404        C405   1.347       .  A
C405        C406   1.382       .  A
C405        H408   1.082       .  S
C406        C407   1.382       .  A
C406        C482   1.469       .  S
C407        H409   1.082       .  S
N410        N411   1.320   1_655  A
N410        C414   1.344       .  A
N411        C412   1.344       .  A
C412        C413   1.388       .  A
C412        H415   1.081       .  S
C413        C414   1.389   1_455  A
C413        C567   1.493       .  S
C414        H416   1.081       .  S
N417        N418   1.323       .  A
N417        C421   1.345       .  A
N417       Cu425   2.073       .  S
N418        C419   1.346       .  A
N418       Cu424   2.075       .  S
C419        C420   1.382       .  A
C419        H422   1.082       .  S
C420        C421   1.382       .  A
C420        C524   1.467       .  S
C421        H423   1.082       .  S
Cu424       N427   2.076       .  S
Cu425       N435   2.073       .  S
Cu426       N428   2.070       .  S
Cu426       N434   2.070       .  S
N427        N428   1.322       .  A
N427        C431   1.346       .  A
N428        C429   1.344   1_545  A
C429        C430   1.381       .  A
C429        H432   1.082       .  S
C430        C431   1.383   1_565  A
C430        C495   1.467       .  S
C431        H433   1.082       .  S
N434        N435   1.322       .  A
N434        C438   1.344       .  A
N435        C436   1.345       .  A
C436        C437   1.382       .  A
C436        H439   1.082       .  S
C437        C438   1.381       .  A
C437        C557   1.476       .  S
C438        H440   1.082       .  S
O441      Cu1161   2.007   1_554  S
O441        C451   1.277       .  A
O442       Cu449   2.010       .  S
O442        C452   1.277       .  A
O443      Cu1161   2.011   1_554  S
O443        C453   1.278       .  A
O444       Cu449   2.010       .  S
O444        C454   1.277       .  A
O445       Cu450   2.011       .  S
O445        C454   1.278       .  A
O446      Cu1162   2.012   1_554  S
O446        C453   1.278       .  A
O447       Cu450   2.011       .  S
O447        C452   1.278       .  A
O448      Cu1162   2.011   1_554  S
O448        C451   1.277       .  A
Cu449      O1153   2.007       .  S
Cu449      O1155   2.011       .  S
Cu449      Cu450   2.377       .  S
Cu450      O1158   2.012       .  S
Cu450      O1160   2.011       .  S
O455      Cu1175   2.012       .  S
O455        C465   1.278       .  A
O456       Cu463   2.013       .  S
O456        C466   1.278       .  A
O457      Cu1175   2.005       .  S
O457        C467   1.276       .  A
O458       Cu463   2.007       .  S
O458        C468   1.277       .  A
O459       Cu464   2.010       .  S
O459        C468   1.278       .  A
O460      Cu1176   2.011   1_554  S
O460        C467   1.277       .  A
O461       Cu464   2.004       .  S
O461        C466   1.276       .  A
O462      Cu1176   2.006   1_554  S
O462        C465   1.277       .  A
Cu463      O1167   2.012       .  S
Cu463      O1169   2.005       .  S
Cu463      Cu464   2.378       .  S
Cu464      O1172   2.011       .  S
Cu464      O1174   2.006       .  S
O469       Cu477   2.017       .  S
O469        C479   1.279       .  A
O470      Cu1189   2.020   1_554  S
O470        C480   1.278       .  A
O471       Cu477   2.009       .  S
O471        C481   1.277       .  A
O472      Cu1189   2.009   1_554  S
O472        C482   1.277       .  A
O473      Cu1190   2.019       .  S
O473        C482   1.278       .  A
O474       Cu478   2.015       .  S
O474        C481   1.278       .  A
O475      Cu1190   2.015       .  S
O475        C480   1.278       .  A
O476       Cu478   2.013       .  S
O476        C479   1.278       .  A
Cu477      O1182   2.020       .  S
Cu477      O1184   2.009       .  S
Cu477      Cu478   2.376       .  S
Cu478      O1185   2.019       .  S
Cu478      O1187   2.015       .  S
O483      Cu1203   2.012   1_554  S
O483        C493   1.277       .  A
O484       Cu491   2.011       .  S
O484        C494   1.278       .  A
O485      Cu1203   2.011   1_554  S
O485        C495   1.277       .  A
O486       Cu491   2.013       .  S
O486        C496   1.278       .  A
O487       Cu492   2.014       .  S
O487        C496   1.278       .  A
O488      Cu1204   2.010   1_554  S
O488        C495   1.278       .  A
O489       Cu492   2.013       .  S
O489        C494   1.278       .  A
O490      Cu1204   2.013   1_554  S
O490        C493   1.278       .  A
Cu491      O1195   2.012       .  S
Cu491      O1197   2.011       .  S
Cu491      Cu492   2.376       .  S
Cu492      O1200   2.010       .  S
Cu492      O1202   2.013       .  S
O497       Cu505   2.017       .  S
O497        C507   1.278       .  A
O498       Cu505   2.016       .  S
O498        C508   1.278       .  A
O499       Cu505   2.006       .  S
O499        C509   1.277       .  A
O500       Cu505   2.008       .  S
O500        C510   1.277       .  A
O501       Cu506   2.014       .  S
O501        C510   1.278       .  A
O502       Cu506   2.013       .  S
O502        C509   1.278       .  A
O503       Cu506   2.014       .  S
O503        C508   1.278       .  A
O504       Cu506   2.009       .  S
O504        C507   1.277       .  A
Cu505      Cu506   2.376       .  S
O511       Cu519   2.010       .  S
O511        C521   1.277       .  A
O512       Cu519   2.009       .  S
O512        C522   1.277       .  A
O513       Cu519   2.015       .  S
O513        C523   1.278       .  A
O514       Cu519   2.014       .  S
O514        C524   1.278       .  A
O515       Cu520   2.005       .  S
O515        C524   1.277       .  A
O516       Cu520   2.003       .  S
O516        C523   1.277       .  A
O517       Cu520   2.010       .  S
O517        C522   1.277       .  A
O518       Cu520   2.009       .  S
O518        C521   1.277       .  A
Cu519      Cu520   2.377       .  S
O525       Cu533   2.009       .  S
O525        C535   1.277       .  A
O526       Cu533   2.009       .  S
O526        C536   1.277       .  A
O527       Cu533   2.013       .  S
O527        C537   1.278       .  A
O528       Cu533   2.015       .  S
O528        C538   1.278       .  A
O529       Cu534   2.017       .  S
O529        C538   1.278       .  A
O530       Cu534   2.016       .  S
O530        C537   1.278       .  A
O531       Cu534   2.009       .  S
O531        C536   1.277       .  A
O532       Cu534   2.012       .  S
O532        C535   1.278       .  A
Cu533      Cu534   2.376       .  S
O539       Cu547   2.015       .  S
O539        C549   1.278       .  A
O540       Cu547   2.017       .  S
O540        C550   1.278       .  A
O541       Cu547   2.007       .  S
O541        C551   1.277       .  A
O542       Cu547   2.005       .  S
O542        C552   1.277       .  A
O543       Cu548   2.010       .  S
O543        C552   1.277       .  A
O544       Cu548   2.013       .  S
O544        C551   1.278       .  A
O545       Cu548   2.009       .  S
O545        C550   1.277       .  A
O546       Cu548   2.006       .  S
O546        C549   1.277       .  A
Cu547      Cu548   2.377       .  S
C553        C554   1.424       .  A
C553        C558   1.409       .  A
C553       Br560   1.937       .  S
C554        C555   1.425       .  A
C555        C556   1.408       .  A
C555       Br562   1.937       .  S
C556        C557   1.405       .  A
C556       Br561   1.935       .  S
C557        C558   1.405       .  A
C558       Br559   1.934       .  S
C563        C564   1.409   1_655  A
C563        C568   1.408       .  A
C563       Br570   1.932       .  S
C564        C565   1.408       .  A
C565        C566   1.410       .  A
C565       Br572   1.930       .  S
C566        C567   1.419       .  A
C566       Br571   1.933       .  S
C567        C568   1.417   1_455  A
C568       Br569   1.933       .  S
C573        C574   1.409       .  A
C573        C578   1.407       .  A
C573       Br580   1.930   1_545  S
C574        C575   1.407       .  A
C575        C576   1.407       .  A
C575       Br582   1.928       .  S
C576        C577   1.415       .  A
C576       Br581   1.933       .  S
C577        C578   1.414       .  A
C578       Br579   1.932   1_545  S
C583        C584   1.406       .  A
C583        C588   1.409       .  A
C583       Br590   1.934       .  S
C584        C585   1.407   1_455  A
C585        C586   1.410       .  A
C585       Br592   1.935       .  S
C586        C587   1.424   1_655  A
C586       Br591   1.935       .  S
C587        C588   1.423       .  A
C588       Br589   1.936       .  S
C593        C594   1.418       .  A
C593        C598   1.408       .  A
C593       Br600   1.933       .  S
C594        C595   1.417       .  A
C595        C596   1.407       .  A
C595       Br602   1.933       .  S
C596        C597   1.406       .  A
C596       Br601   1.932       .  S
C597        C598   1.405       .  A
C598       Br599   1.931       .  S
C603        C604   1.409   1_455  A
C603        C608   1.408       .  A
C603       Br610   1.929       .  S
C604        C605   1.409       .  A
C605        C606   1.407       .  A
C605       Br612   1.930       .  S
C606        C607   1.410       .  A
C606       Br611   1.932       .  S
C607        C608   1.410   1_655  A
C608       Br609   1.930       .  S
C613        C614   1.416       .  A
C613        C618   1.409       .  A
C613       Br620   1.932       .  S
C614        C615   1.416       .  A
C615        C616   1.408       .  A
C615       Br622   1.932       .  S
C616        C617   1.407       .  A
C616       Br621   1.931       .  S
C617        C618   1.406       .  A
C618       Br619   1.930       .  S
C623        C624   1.412       .  A
C623        C628   1.410       .  A
C623       Br630   1.930       .  S
C624        C625   1.412   1_655  A
C625        C626   1.408       .  A
C625       Br632   1.930       .  S
C626        C627   1.408   1_455  A
C626       Br631   1.931       .  S
C627        C628   1.409       .  A
C628       Br629   1.930       .  S
C633        C634   1.409       .  A
C633        C638   1.409       .  A
C633       Br640   1.929       .  S
C634        C635   1.409       .  A
C635        C636   1.407       .  A
C635       Br642   1.931       .  S
C636        C637   1.411       .  A
C636       Br641   1.931       .  S
C637        C638   1.411       .  A
C638       Br639   1.930       .  S
C643        C644   1.414       .  A
C643        C648   1.410       .  A
C643       Br650   1.931       .  S
C644        C645   1.413       .  A
C645        C646   1.409       .  A
C645       Br652   1.930       .  S
C646        C647   1.408       .  A
C646       Br651   1.931       .  S
C647        C648   1.408       .  A
C648       Br649   1.930       .  S
C653        C654   1.412       .  A
C653        C658   1.408       .  A
C653       Br660   1.931       .  S
C654        C655   1.412       .  A
C655        C656   1.407       .  A
C655       Br662   1.932       .  S
C656        C657   1.408       .  A
C656       Br661   1.931       .  S
C657        C658   1.409       .  A
C658       Br659   1.930       .  S
C663        C664   1.407       .  A
C663        C668   1.409       .  A
C663       Br670   1.931       .  S
C664        C665   1.408       .  A
C665        C666   1.411       .  A
C665       Br672   1.930       .  S
C666        C667   1.416       .  A
C666       Br671   1.932       .  S
C667        C668   1.417       .  A
C668       Br669   1.933       .  S
C673        C674   1.408       .  A
C673        C678   1.409       .  A
C673       Br680   1.931       .  S
C674        C675   1.407       .  A
C675        C676   1.407       .  A
C675       Br682   1.930       .  S
C676        C677   1.412       .  A
C676       Br681   1.930       .  S
C677        C678   1.413       .  A
C678       Br679   1.931       .  S
C683        C684   1.419       .  A
C683        C688   1.408       .  A
C683       Br690   1.935       .  S
C684        C685   1.418       .  A
C685        C686   1.409       .  A
C685       Br692   1.933       .  S
C686        C687   1.406       .  A
C686       Br691   1.931       .  S
C687        C688   1.405       .  A
C688       Br689   1.932       .  S
C693        C694   1.407       .  A
C693        C698   1.408       .  A
C693       Br700   1.930       .  S
C694        C695   1.409       .  A
C695        C696   1.410       .  A
C695       Br702   1.929       .  S
C696        C697   1.412       .  A
C696       Br701   1.931       .  S
C697        C698   1.413       .  A
C698       Br699   1.930       .  S
C703        C704   1.406       .  A
C703        C708   1.409       .  A
C703       Br710   1.933       .  S
C704        C705   1.408       .  A
C705        C706   1.410       .  A
C705       Br712   1.933       .  S
C706        C707   1.419       .  A
C706       Br711   1.934       .  S
C707        C708   1.421       .  A
C708       Br709   1.936       .  S
N713        N714   1.323       .  A
N713        C717   1.346       .  A
N713       Cu721   2.080       .  S
N714        C715   1.345       .  A
N714       Cu720   2.070       .  S
C715        C716   1.381       .  A
C715        H718   1.082       .  S
C716        C717   1.383       .  A
C716       C1177   1.466       .  S
C717        H719   1.082       .  S
Cu720       N723   2.070       .  S
Cu721       N731   2.080       .  S
Cu722       N724   2.073       .  S
Cu722       N730   2.073       .  S
N723        N724   1.322       .  A
N723        C727   1.345       .  A
N724        C725   1.345       .  A
C725        C726   1.382       .  A
C725        H728   1.082       .  S
C726        C727   1.382       .  A
C726       C1234   1.466       .  S
C727        H729   1.082       .  S
N730        N731   1.323       .  A
N730        C734   1.345       .  A
N731        C732   1.347       .  A
C732        C733   1.384       .  A
C732        H735   1.082       .  S
C733        C734   1.382       .  A
C733       C1416   1.478       .  S
C734        H736   1.082       .  S
O737       Cu745   2.015       .  S
O737        C747   1.278       .  A
O738       Cu745   2.016       .  S
O738        C748   1.278       .  A
O739       Cu745   2.002       .  S
O739        C749   1.276       .  A
O740       Cu745   2.001       .  S
O740        C750   1.276       .  A
O741       Cu746   2.018       .  S
O741        C750   1.279       .  A
O742       Cu746   2.017       .  S
O742        C749   1.279       .  A
O743       Cu746   2.011       .  S
O743        C748   1.277       .  A
O744       Cu746   2.005       .  S
O744        C747   1.276       .  A
Cu745      Cu746   2.370       .  S
C747       C1386   1.472       .  S
C748       C1406   1.475       .  S
C749       C1419   1.493       .  S
C750       C1396   1.488       .  S
N751        N752   1.323       .  A
N751        C755   1.345       .  A
N751       Cu759   2.071       .  S
N752        C753   1.346       .  A
N752       Cu758   2.082       .  S
C753        C754   1.383       .  A
C753        H756   1.082       .  S
C754        C755   1.381       .  A
C754       C1247   1.467       .  S
C755        H757   1.082       .  S
Cu758       N761   2.083       .  S
Cu759       N769   2.071       .  S
Cu760       N762   2.082       .  S
Cu760       N768   2.082       .  S
N761        N762   1.323       .  A
N761        C765   1.348       .  A
N762        C763   1.346       .  A
C763        C764   1.383       .  A
C763        H766   1.082       .  S
C764        C765   1.384       .  A
C764       C1192   1.472       .  S
C765        H767   1.082       .  S
N768        N769   1.322       .  A
N768        C772   1.347       .  A
N769        C770   1.345       .  A
C770        C771   1.383       .  A
C770        H773   1.082       .  S
C771        C772   1.386       .  A
C771       C1409   1.483       .  S
C772        H774   1.082       .  S
N775        N776   1.323       .  A
N775        C779   1.344       .  A
N775       Cu783   2.072       .  S
N776        C777   1.347       .  A
N776       Cu782   2.080       .  S
C777        C778   1.383       .  A
C777        H780   1.082       .  S
C778        C779   1.381       .  A
C778       C1263   1.467       .  S
C779        H781   1.082       .  S
Cu782       N785   2.080       .  S
Cu783       N793   2.072       .  S
Cu784       N786   2.073       .  S
Cu784       N792   2.073       .  S
N785        N786   1.323       .  A
N785        C789   1.346       .  A
N786        C787   1.345       .  A
C787        C788   1.382       .  A
C787        H790   1.082       .  S
C788        C789   1.383       .  A
C788       C1205   1.468       .  S
C789        H791   1.082       .  S
N792        N793   1.323       .  A
N792        C796   1.345       .  A
N793        C794   1.345       .  A
C794        C795   1.381       .  A
C794        H797   1.082       .  S
C795        C796   1.381       .  A
C795       C1399   1.474       .  S
C796        H798   1.082       .  S
N799        N800   1.323       .  A
N799        C803   1.346       .  A
N799       Cu807   2.078       .  S
N800        C801   1.346       .  A
N800       Cu806   2.080       .  S
C801        C802   1.383       .  A
C801        H804   1.082       .  S
C802        C803   1.383       .  A
C802       C1220   1.471       .  S
C803        H805   1.082       .  S
Cu806       N809   2.079       .  S
Cu807       N817   2.079       .  S
Cu808       N810   2.073       .  S
Cu808       N816   2.073       .  S
N809        N810   1.323       .  A
N809        C813   1.346       .  A
N810        C811   1.345       .  A
C811        C812   1.382       .  A
C811        H814   1.082       .  S
C812        C813   1.383       .  A
C812       C1165   1.468       .  S
C813        H815   1.082       .  S
N816        N817   1.323       .  A
N816        C820   1.345       .  A
N817        C818   1.346       .  A
C818        C819   1.385       .  A
C818        H821   1.082       .  S
C819        C820   1.383       .  A
C819       C1389   1.481       .  S
C820        H822   1.082       .  S
N823        N824   1.323       .  A
N823        C827   1.347       .  A
N823       Cu831   2.081       .  S
N824        C825   1.346       .  A
N824       Cu830   2.077       .  S
C825        C826   1.383       .  A
C825        H828   1.082       .  S
C826        C827   1.383       .  A
C826       C1262   1.469       .  S
C827        H829   1.082       .  S
Cu830       N833   2.077       .  S
Cu831       N841   2.082       .  S
Cu832       N834   2.081       .  S
Cu832       N840   2.082       .  S
N833        N834   1.323       .  A
N833        C837   1.346       .  A
N834        C835   1.347       .  A
C835        C836   1.383       .  A
C835        H838   1.082       .  S
C836        C837   1.383       .  A
C836       C1208   1.470       .  S
C837        H839   1.082       .  S
N840        N841   1.323       .  A
N840        C844   1.347       .  A
N841        C842   1.347       .  A
C842        C843   1.383       .  A
C842        H845   1.082       .  S
C843        C844   1.383       .  A
C843       C1376   1.480       .  S
C844        H846   1.082       .  S
O847       Cu855   2.014       .  S
O847        C857   1.278       .  A
O848       Cu855   2.011       .  S
O848        C858   1.278       .  A
O849       Cu855   2.007       .  S
O849        C859   1.277       .  A
O850       Cu855   2.010       .  S
O850        C860   1.277       .  A
O851       Cu856   2.004       .  S
O851        C860   1.277       .  A
O852       Cu856   2.013       .  S
O852        C859   1.278       .  A
O853       Cu856   2.019       .  S
O853        C858   1.279       .  A
O854       Cu856   2.017       .  S
O854        C857   1.279       .  A
Cu855      Cu856   2.373       .  S
C857       C1356   1.483       .  S
C858       C1379   1.489       .  S
C859       C1346   1.475       .  S
C860       C1366   1.477       .  S
N861        N862   1.322       .  A
N861        C865   1.345       .  A
N861       Cu869   2.070       .  S
N862        C863   1.345       .  A
N862       Cu868   2.075       .  S
C863        C864   1.383       .  A
C863        H866   1.082       .  S
C864        C865   1.382       .  A
C864       C1221   1.467       .  S
C865        H867   1.082       .  S
Cu868       N871   2.075       .  S
Cu869       N879   2.071       .  S
Cu870       N872   2.073       .  S
Cu870       N878   2.073       .  S
N871        N872   1.322       .  A
N871        C875   1.345       .  A
N872        C873   1.345       .  A
C873        C874   1.382       .  A
C873        H876   1.082       .  S
C874        C875   1.383       .  A
C874       C1164   1.467       .  S
C875        H877   1.082       .  S
N878        N879   1.323       .  A
N878        C882   1.345       .  A
N879        C880   1.345       .  A
C880        C881   1.381       .  A
C880        H883   1.082       .  S
C881        C882   1.381       .  A
C881       C1369   1.474       .  S
C882        H884   1.082       .  S
N885        N886   1.323       .  A
N885        C889   1.344       .  A
N885       Cu893   2.073       .  S
N886        C887   1.346       .  A
N886       Cu892   2.073       .  S
C887        C888   1.383       .  A
C887        H890   1.082       .  S
C888        C889   1.382       .  A
C888       C1235   1.466       .  S
C889        H891   1.082       .  S
Cu892       N895   2.073       .  S
Cu893       N903   2.074       .  S
Cu894       N896   2.076       .  S
Cu894       N902   2.077       .  S
N895        N896   1.323       .  A
N895        C899   1.345       .  A
N896        C897   1.345       .  A
C897        C898   1.382       .  A
C897        H900   1.082       .  S
C898        C899   1.382       .  A
C898       C1180   1.466       .  S
C899        H901   1.082       .  S
N902        N903   1.323       .  A
N902        C906   1.346       .  A
N903        C904   1.346       .  A
C904        C905   1.382       .  A
C904        H907   1.082       .  S
C905        C906   1.383       .  A
C905       C1359   1.478       .  S
C906        H908   1.082       .  S
N909        N910   1.323       .  A
N909        C913   1.348       .  A
N909       Cu917   2.084       .  S
N910        C911   1.346       .  A
N910       Cu916   2.079       .  S
C911        C912   1.383       .  A
C911        H914   1.082       .  S
C912        C913   1.384       .  A
C912       C1250   1.472       .  S
C913        H915   1.082       .  S
Cu916       N919   2.079       .  S
Cu917       N927   2.085       .  S
Cu918       N920   2.069       .  S
Cu918       N926   2.070       .  S
N919        N920   1.322       .  A
N919        C923   1.346       .  A
N920        C921   1.346       .  A
C921        C922   1.382       .  A
C921        H924   1.082       .  S
C922        C923   1.384       .  A
C922       C1193   1.468       .  S
C923        H925   1.082       .  S
N926        N927   1.323       .  A
N926        C930   1.344       .  A
N927        C928   1.347       .  A
C928        C929   1.385       .  A
C928        H931   1.082       .  S
C929        C930   1.381       .  A
C929       C1349   1.479       .  S
C930        H932   1.082       .  S
N933        N934   1.323       .  A
N933        C937   1.347       .  A
N933       Cu941   2.083       .  S
N934        C935   1.346       .  A
N934       Cu940   2.081       .  S
C935        C936   1.383       .  A
C935        H938   1.082       .  S
C936        C937   1.384       .  A
C936       C1191   1.472       .  S
C937        H939   1.082       .  S
Cu940       N943   2.080   1_655  S
Cu941       N951   2.083       .  S
Cu942       N944   2.073       .  S
Cu942       N950   2.074       .  S
N943        N944   1.322       .  A
N943        C947   1.347       .  A
N944        C945   1.345       .  A
C945        C946   1.382       .  A
C945        H948   1.082       .  S
C946        C947   1.384       .  A
C946       C1219   1.470       .  S
C947        H949   1.082       .  S
N950        N951   1.323   1_455  A
N950        C954   1.345       .  A
N951        C952   1.347       .  A
C952        C953   1.385       .  A
C952        H955   1.082       .  S
C953        C954   1.383   1_655  A
C953       C1336   1.482       .  S
C954        H956   1.082       .  S
O957       Cu965   2.015   1_455  S
O957        C967   1.279       .  A
O958       Cu965   2.011       .  S
O958        C968   1.278       .  A
O959       Cu965   2.008       .  S
O959        C969   1.277   1_545  A
O960       Cu965   2.001       .  S
O960        C970   1.276       .  A
O961       Cu966   2.014   1_455  S
O961        C970   1.278   1_455  A
O962       Cu966   2.016       .  S
O962        C969   1.278   1_545  A
O963       Cu966   2.004       .  S
O963        C968   1.277       .  A
O964       Cu966   2.008   1_455  S
O964        C967   1.277       .  A
Cu965      Cu966   2.373       .  S
C967       C1326   1.486       .  S
C968       C1306   1.486       .  S
C969       C1339   1.475       .  S
C970       C1319   1.473       .  S
N971        N972   1.323       .  A
N971        C975   1.347   1_545  A
N971       Cu979   2.080       .  S
N972        C973   1.345       .  A
N972       Cu978   2.075       .  S
C973        C974   1.382   1_545  A
C973        H976   1.082       .  S
C974        C975   1.383       .  A
C974       C1206   1.469       .  S
C975        H977   1.082       .  S
Cu978       N981   2.075       .  S
Cu979       N989   2.080       .  S
Cu980       N982   2.073       .  S
Cu980       N988   2.074       .  S
N981        N982   1.322       .  A
N981        C985   1.346       .  A
N982        C983   1.345       .  A
C983        C984   1.382       .  A
C983        H986   1.082       .  S
C984        C985   1.383       .  A
C984       C1233   1.467       .  S
C985        H987   1.082       .  S
N988        N989   1.323       .  A
N988        C992   1.346       .  A
N989        C990   1.346       .  A
C990        C991   1.382       .  A
C990        H993   1.082       .  S
C991        C992   1.381       .  A
C991       C1329   1.476       .  S
C992        H994   1.082       .  S
N995        N996   1.323       .  A
N995        C999   1.346       .  A
N995      Cu1003   2.079       .  S
N996        C997   1.345       .  A
N996      Cu1002   2.072       .  S
C997        C998   1.381       .  A
C997       H1000   1.082       .  S
C998        C999   1.383       .  A
C998       C1166   1.467       .  S
C999       H1001   1.082       .  S
Cu1002     N1005   2.072   1_455  S
Cu1003     N1013   2.079       .  S
Cu1004     N1006   2.070       .  S
Cu1004     N1012   2.070       .  S
N1005      N1006   1.322       .  A
N1005      C1009   1.345       .  A
N1006      C1007   1.345       .  A
C1007      C1008   1.382       .  A
C1007      H1010   1.082       .  S
C1008      C1009   1.382       .  A
C1008      C1248   1.466       .  S
C1009      H1011   1.082       .  S
N1012      N1013   1.323   1_655  A
N1012      C1016   1.344       .  A
N1013      C1014   1.346       .  A
C1014      C1015   1.383   1_455  A
C1014      H1017   1.082       .  S
C1015      C1016   1.380       .  A
C1015      C1316   1.475       .  S
C1016      H1018   1.082       .  S
N1019      N1020   1.323       .  A
N1019      C1023   1.345       .  A
N1019     Cu1027   2.077       .  S
N1020      C1021   1.345       .  A
N1020     Cu1026   2.070       .  S
C1021      C1022   1.381       .  A
C1021      H1024   1.082       .  S
C1022      C1023   1.382       .  A
C1022      C1178   1.466       .  S
C1023      H1025   1.082       .  S
Cu1026     N1029   2.070       .  S
Cu1027     N1037   2.077       .  S
Cu1028     N1030   2.067       .  S
Cu1028     N1036   2.067       .  S
N1029      N1030   1.322       .  A
N1029      C1033   1.345       .  A
N1030      C1031   1.344   1_545  A
C1031      C1032   1.381       .  A
C1031      H1034   1.082       .  S
C1032      C1033   1.381   1_565  A
C1032      C1264   1.464       .  S
C1033      H1035   1.082       .  S
N1036      N1037   1.323       .  A
N1036      C1040   1.344       .  A
N1037      C1038   1.346       .  A
C1038      C1039   1.382       .  A
C1038      H1041   1.082       .  S
C1039      C1040   1.379       .  A
C1039      C1309   1.472       .  S
C1040      H1042   1.082       .  S
N1043      N1044   1.323       .  A
N1043      C1047   1.346       .  A
N1043     Cu1051   2.077       .  S
N1044      C1045   1.347       .  A
N1044     Cu1050   2.083   1_655  S
C1045      C1046   1.384       .  A
C1045      H1048   1.082       .  S
C1046      C1047   1.382       .  A
C1046      C1249   1.470       .  S
C1047      H1049   1.082       .  S
Cu1050     N1053   2.083       .  S
Cu1051     N1061   2.077       .  S
Cu1052     N1054   2.066       .  S
Cu1052     N1060   2.067       .  S
N1053      N1054   1.323       .  A
N1053      C1057   1.347       .  A
N1054      C1055   1.343       .  A
C1055      C1056   1.379       .  A
C1055      H1058   1.082       .  S
C1056      C1057   1.384       .  A
C1056      C1163   1.466       .  S
C1057      H1059   1.082       .  S
N1060      N1061   1.322   1_455  A
N1060      C1064   1.345       .  A
N1061      C1062   1.345       .  A
C1062      C1063   1.384   1_655  A
C1062      H1065   1.082       .  S
C1063      C1064   1.382       .  A
C1063      C1296   1.479       .  S
C1064      H1066   1.082       .  S
O1067     Cu1075   2.012   1_655  S
O1067      C1077   1.278   1_655  A
O1068     Cu1075   2.021       .  S
O1068      C1078   1.280   1_545  A
O1069     Cu1075   2.005       .  S
O1069      C1079   1.275       .  A
O1070     Cu1075   2.000   1_655  S
O1070      C1080   1.275       .  A
O1071     Cu1076   2.020   1_655  S
O1071      C1080   1.280       .  A
O1072     Cu1076   2.008       .  S
O1072      C1079   1.277       .  A
O1073     Cu1076   2.004       .  S
O1073      C1078   1.276   1_545  A
O1074     Cu1076   2.012       .  S
O1074      C1077   1.276       .  A
Cu1075    Cu1076   2.360       .  S
C1077      C1299   1.499       .  S
C1078      C1276   1.480       .  S
C1079      C1266   1.499       .  S
C1080      C1286   1.475       .  S
N1081      N1082   1.322       .  A
N1081      C1085   1.345       .  A
N1081     Cu1089   2.070       .  S
N1082      C1083   1.344       .  A
N1082     Cu1088   2.072       .  S
C1083      C1084   1.381       .  A
C1083      H1086   1.082       .  S
C1084      C1085   1.381       .  A
C1084      C1179   1.463       .  S
C1085      H1087   1.082       .  S
Cu1088     N1091   2.072       .  S
Cu1089     N1099   2.069       .  S
Cu1090     N1092   2.073       .  S
Cu1090     N1098   2.073       .  S
N1091      N1092   1.322       .  A
N1091      C1095   1.344       .  A
N1092      C1093   1.346   1_545  A
C1093      C1094   1.383       .  A
C1093      H1096   1.082       .  S
C1094      C1095   1.381   1_565  A
C1094      C1261   1.466       .  S
C1095      H1097   1.082       .  S
N1098      N1099   1.321       .  A
N1098      C1102   1.344       .  A
N1099      C1100   1.344       .  A
C1100      C1101   1.385       .  A
C1100      H1103   1.082       .  S
C1101      C1102   1.385       .  A
C1101      C1289   1.484       .  S
C1102      H1104   1.082       .  S
N1105      N1106   1.323       .  A
N1105      C1109   1.345       .  A
N1105     Cu1113   2.070       .  S
N1106      C1107   1.347       .  A
N1106     Cu1112   2.081       .  S
C1107      C1108   1.384       .  A
C1107      H1110   1.082       .  S
C1108      C1109   1.381       .  A
C1108      C1222   1.467       .  S
C1109      H1111   1.082       .  S
Cu1112     N1115   2.081   1_455  S
Cu1113     N1123   2.070       .  S
Cu1114     N1116   2.079       .  S
Cu1114     N1122   2.078       .  S
N1115      N1116   1.323       .  A
N1115      C1119   1.346       .  A
N1116      C1117   1.347       .  A
C1117      C1118   1.382       .  A
C1117      H1120   1.082       .  S
C1118      C1119   1.382       .  A
C1118      C1194   1.469       .  S
C1119      H1121   1.082       .  S
N1122      N1123   1.320   1_655  A
N1122      C1126   1.344       .  A
N1123      C1124   1.344       .  A
C1124      C1125   1.388       .  A
C1124      H1127   1.081       .  S
C1125      C1126   1.389   1_455  A
C1125      C1279   1.493       .  S
C1126      H1128   1.081       .  S
N1129      N1130   1.323       .  A
N1129      C1133   1.345       .  A
N1129     Cu1137   2.073       .  S
N1130      C1131   1.346       .  A
N1130     Cu1136   2.075       .  S
C1131      C1132   1.382       .  A
C1131      H1134   1.082       .  S
C1132      C1133   1.382       .  A
C1132      C1236   1.467       .  S
C1133      H1135   1.082       .  S
Cu1136     N1139   2.076       .  S
Cu1137     N1147   2.073       .  S
Cu1138     N1140   2.070       .  S
Cu1138     N1146   2.070       .  S
N1139      N1140   1.322       .  A
N1139      C1143   1.346       .  A
N1140      C1141   1.344   1_545  A
C1141      C1142   1.381       .  A
C1141      H1144   1.082       .  S
C1142      C1143   1.383   1_565  A
C1142      C1207   1.467       .  S
C1143      H1145   1.082       .  S
N1146      N1147   1.322       .  A
N1146      C1150   1.344       .  A
N1147      C1148   1.345       .  A
C1148      C1149   1.382       .  A
C1148      H1151   1.082       .  S
C1149      C1150   1.381       .  A
C1149      C1269   1.476       .  S
C1150      H1152   1.082       .  S
O1153      C1163   1.277       .  A
O1154     Cu1161   2.010       .  S
O1154      C1164   1.277       .  A
O1155      C1165   1.278       .  A
O1156     Cu1161   2.010       .  S
O1156      C1166   1.277       .  A
O1157     Cu1162   2.011       .  S
O1157      C1166   1.278       .  A
O1158      C1165   1.278       .  A
O1159     Cu1162   2.011       .  S
O1159      C1164   1.278       .  A
O1160      C1163   1.277       .  A
Cu1161    Cu1162   2.377       .  S
O1167      C1177   1.278       .  A
O1168     Cu1175   2.013   1_556  S
O1168      C1178   1.278       .  A
O1169      C1179   1.276       .  A
O1170     Cu1175   2.007   1_556  S
O1170      C1180   1.277       .  A
O1171     Cu1176   2.010       .  S
O1171      C1180   1.278       .  A
O1172      C1179   1.277       .  A
O1173     Cu1176   2.004       .  S
O1173      C1178   1.276       .  A
O1174      C1177   1.277       .  A
Cu1175    Cu1176   2.378   1_554  S
O1181     Cu1189   2.017       .  S
O1181      C1191   1.279       .  A
O1182      C1192   1.278       .  A
O1183     Cu1189   2.009       .  S
O1183      C1193   1.277       .  A
O1184      C1194   1.277       .  A
O1185      C1194   1.278       .  A
O1186     Cu1190   2.015   1_556  S
O1186      C1193   1.278       .  A
O1187      C1192   1.278       .  A
O1188     Cu1190   2.013   1_556  S
O1188      C1191   1.278       .  A
Cu1189    Cu1190   2.376   1_556  S
O1195      C1205   1.277       .  A
O1196     Cu1203   2.011       .  S
O1196      C1206   1.278       .  A
O1197      C1207   1.277       .  A
O1198     Cu1203   2.013       .  S
O1198      C1208   1.278       .  A
O1199     Cu1204   2.014       .  S
O1199      C1208   1.278       .  A
O1200      C1207   1.278       .  A
O1201     Cu1204   2.013       .  S
O1201      C1206   1.278       .  A
O1202      C1205   1.278       .  A
Cu1203    Cu1204   2.376       .  S
O1209     Cu1217   2.017       .  S
O1209      C1219   1.278       .  A
O1210     Cu1217   2.016       .  S
O1210      C1220   1.278       .  A
O1211     Cu1217   2.006       .  S
O1211      C1221   1.277       .  A
O1212     Cu1217   2.008       .  S
O1212      C1222   1.277       .  A
O1213     Cu1218   2.014       .  S
O1213      C1222   1.278       .  A
O1214     Cu1218   2.013       .  S
O1214      C1221   1.278       .  A
O1215     Cu1218   2.014       .  S
O1215      C1220   1.278       .  A
O1216     Cu1218   2.009       .  S
O1216      C1219   1.277       .  A
Cu1217    Cu1218   2.376       .  S
O1223     Cu1231   2.010       .  S
O1223      C1233   1.277       .  A
O1224     Cu1231   2.009       .  S
O1224      C1234   1.277       .  A
O1225     Cu1231   2.015       .  S
O1225      C1235   1.278       .  A
O1226     Cu1231   2.014       .  S
O1226      C1236   1.278       .  A
O1227     Cu1232   2.005       .  S
O1227      C1236   1.277       .  A
O1228     Cu1232   2.003       .  S
O1228      C1235   1.277       .  A
O1229     Cu1232   2.010       .  S
O1229      C1234   1.277       .  A
O1230     Cu1232   2.009       .  S
O1230      C1233   1.277       .  A
Cu1231    Cu1232   2.377       .  S
O1237     Cu1245   2.009       .  S
O1237      C1247   1.277       .  A
O1238     Cu1245   2.009       .  S
O1238      C1248   1.277       .  A
O1239     Cu1245   2.013       .  S
O1239      C1249   1.278       .  A
O1240     Cu1245   2.015       .  S
O1240      C1250   1.278       .  A
O1241     Cu1246   2.017       .  S
O1241      C1250   1.278       .  A
O1242     Cu1246   2.016       .  S
O1242      C1249   1.278       .  A
O1243     Cu1246   2.009       .  S
O1243      C1248   1.277       .  A
O1244     Cu1246   2.012       .  S
O1244      C1247   1.278       .  A
Cu1245    Cu1246   2.376       .  S
O1251     Cu1259   2.015       .  S
O1251      C1261   1.278       .  A
O1252     Cu1259   2.017       .  S
O1252      C1262   1.278       .  A
O1253     Cu1259   2.007       .  S
O1253      C1263   1.277       .  A
O1254     Cu1259   2.005       .  S
O1254      C1264   1.277       .  A
O1255     Cu1260   2.010       .  S
O1255      C1264   1.277       .  A
O1256     Cu1260   2.013       .  S
O1256      C1263   1.278       .  A
O1257     Cu1260   2.009       .  S
O1257      C1262   1.277       .  A
O1258     Cu1260   2.006       .  S
O1258      C1261   1.277       .  A
Cu1259    Cu1260   2.377       .  S
C1265      C1266   1.424       .  A
C1265      C1270   1.409       .  A
C1265     Br1272   1.937       .  S
C1266      C1267   1.425       .  A
C1267      C1268   1.408       .  A
C1267     Br1274   1.937       .  S
C1268      C1269   1.405       .  A
C1268     Br1273   1.935       .  S
C1269      C1270   1.405       .  A
C1270     Br1271   1.934       .  S
C1275      C1276   1.409   1_655  A
C1275      C1280   1.408       .  A
C1275     Br1282   1.932       .  S
C1276      C1277   1.408       .  A
C1277      C1278   1.410       .  A
C1277     Br1284   1.930       .  S
C1278      C1279   1.419       .  A
C1278     Br1283   1.933       .  S
C1279      C1280   1.417   1_455  A
C1280     Br1281   1.933       .  S
C1285      C1286   1.409       .  A
C1285      C1290   1.407       .  A
C1285     Br1292   1.930   1_545  S
C1286      C1287   1.407       .  A
C1287      C1288   1.407       .  A
C1287     Br1294   1.928       .  S
C1288      C1289   1.415       .  A
C1288     Br1293   1.933       .  S
C1289      C1290   1.414       .  A
C1290     Br1291   1.932   1_545  S
C1295      C1296   1.406       .  A
C1295      C1300   1.409       .  A
C1295     Br1302   1.934       .  S
C1296      C1297   1.407   1_455  A
C1297      C1298   1.410       .  A
C1297     Br1304   1.935       .  S
C1298      C1299   1.424   1_655  A
C1298     Br1303   1.935       .  S
C1299      C1300   1.423       .  A
C1300     Br1301   1.936       .  S
C1305      C1306   1.418       .  A
C1305      C1310   1.408       .  A
C1305     Br1312   1.933       .  S
C1306      C1307   1.417       .  A
C1307      C1308   1.407       .  A
C1307     Br1314   1.933       .  S
C1308      C1309   1.406       .  A
C1308     Br1313   1.932       .  S
C1309      C1310   1.405       .  A
C1310     Br1311   1.931       .  S
C1315      C1316   1.409   1_455  A
C1315      C1320   1.408       .  A
C1315     Br1322   1.929       .  S
C1316      C1317   1.409       .  A
C1317      C1318   1.407       .  A
C1317     Br1324   1.930       .  S
C1318      C1319   1.410       .  A
C1318     Br1323   1.932       .  S
C1319      C1320   1.410   1_655  A
C1320     Br1321   1.930       .  S
C1325      C1326   1.416       .  A
C1325      C1330   1.409       .  A
C1325     Br1332   1.932       .  S
C1326      C1327   1.416       .  A
C1327      C1328   1.408       .  A
C1327     Br1334   1.932       .  S
C1328      C1329   1.407       .  A
C1328     Br1333   1.931       .  S
C1329      C1330   1.406       .  A
C1330     Br1331   1.930       .  S
C1335      C1336   1.412       .  A
C1335      C1340   1.410       .  A
C1335     Br1342   1.930       .  S
C1336      C1337   1.412   1_655  A
C1337      C1338   1.408       .  A
C1337     Br1344   1.930       .  S
C1338      C1339   1.408   1_455  A
C1338     Br1343   1.931       .  S
C1339      C1340   1.409       .  A
C1340     Br1341   1.930       .  S
C1345      C1346   1.409       .  A
C1345      C1350   1.409       .  A
C1345     Br1352   1.929       .  S
C1346      C1347   1.409       .  A
C1347      C1348   1.407       .  A
C1347     Br1354   1.931       .  S
C1348      C1349   1.411       .  A
C1348     Br1353   1.931       .  S
C1349      C1350   1.411       .  A
C1350     Br1351   1.930       .  S
C1355      C1356   1.414       .  A
C1355      C1360   1.410       .  A
C1355     Br1362   1.931       .  S
C1356      C1357   1.413       .  A
C1357      C1358   1.409       .  A
C1357     Br1364   1.930       .  S
C1358      C1359   1.408       .  A
C1358     Br1363   1.931       .  S
C1359      C1360   1.408       .  A
C1360     Br1361   1.930       .  S
C1365      C1366   1.412       .  A
C1365      C1370   1.408       .  A
C1365     Br1372   1.931       .  S
C1366      C1367   1.412       .  A
C1367      C1368   1.407       .  A
C1367     Br1374   1.932       .  S
C1368      C1369   1.408       .  A
C1368     Br1373   1.931       .  S
C1369      C1370   1.409       .  A
C1370     Br1371   1.930       .  S
C1375      C1376   1.407       .  A
C1375      C1380   1.409       .  A
C1375     Br1382   1.931       .  S
C1376      C1377   1.408       .  A
C1377      C1378   1.411       .  A
C1377     Br1384   1.930       .  S
C1378      C1379   1.416       .  A
C1378     Br1383   1.932       .  S
C1379      C1380   1.417       .  A
C1380     Br1381   1.933       .  S
C1385      C1386   1.408       .  A
C1385      C1390   1.409       .  A
C1385     Br1392   1.931       .  S
C1386      C1387   1.407       .  A
C1387      C1388   1.407       .  A
C1387     Br1394   1.930       .  S
C1388      C1389   1.412       .  A
C1388     Br1393   1.930       .  S
C1389      C1390   1.413       .  A
C1390     Br1391   1.931       .  S
C1395      C1396   1.419       .  A
C1395      C1400   1.408       .  A
C1395     Br1402   1.935       .  S
C1396      C1397   1.418       .  A
C1397      C1398   1.409       .  A
C1397     Br1404   1.933       .  S
C1398      C1399   1.406       .  A
C1398     Br1403   1.931       .  S
C1399      C1400   1.405       .  A
C1400     Br1401   1.932       .  S
C1405      C1406   1.407       .  A
C1405      C1410   1.408       .  A
C1405     Br1412   1.930       .  S
C1406      C1407   1.409       .  A
C1407      C1408   1.410       .  A
C1407     Br1414   1.929       .  S
C1408      C1409   1.412       .  A
C1408     Br1413   1.931       .  S
C1409      C1410   1.413       .  A
C1410     Br1411   1.930       .  S
C1415      C1416   1.406       .  A
C1415      C1420   1.409       .  A
C1415     Br1422   1.933       .  S
C1416      C1417   1.408       .  A
C1417      C1418   1.410       .  A
C1417     Br1424   1.933       .  S
C1418      C1419   1.419       .  A
C1418     Br1423   1.934       .  S
C1419      C1420   1.421       .  A
C1420     Br1421   1.936       .  S
