geometry optimzed in LAMMPS
_audit_creation_date              2020-11-30 
_audit_creation_method            'lammps2cif' 
_symmetry_space_group_name_H-M    'P1' 
_symmetry_Int_Tables_number       1 
_symmetry_cell_setting            triclinic 
loop_ 
_symmetry_equiv_pos_as_xyz 
  x,y,z 
_cell_length_a                    41.35218726 
_cell_length_b                    41.84352830023707 
_cell_length_c                    47.98725672813872 
_cell_angle_alpha                 90.15817746352629 
_cell_angle_beta                  90.62133582339182 
_cell_angle_gamma                 120.1992669347645 
loop_ 
_atom_site_label 
_atom_site_type_symbol 
_atom_site_fract_x 
_atom_site_fract_y 
_atom_site_fract_z 
_atom_site_charge 
O1          O  0.26756040  0.16955298  0.79423470    -0.77200
C2          C  0.28775555  0.07765249  0.78903901     0.83900
O3          O  0.28077226  0.14041994  0.88987931    -0.78300
O4          O  0.37783348  0.12234762  0.84995472    -0.79800
O5          O  0.40291111  0.22727568  0.79341938    -0.79600
O6          O  0.32083348  0.22321306  0.79032665    -0.78200
Zn7        Zn  0.28001563  0.13807702  0.81875517     1.55700
O8          O  0.40279613  0.17407889  0.79308528    -0.79600
Cd9        Cd  0.35665055  0.21616793  0.81650074     1.59700
Cd10       Cd  0.33429996  0.16703329  0.87344431     1.59600
O11         O  0.37416032  0.25453865  0.84867123    -0.79600
O12         O  0.33160422  0.16499344  0.83158128    -1.90100
Cd13       Cd  0.35802512  0.13966053  0.81739141     1.59900
O14         O  0.36153100  0.22161888  0.88755902    -0.79600
O15         O  0.32267161  0.09309980  0.79434800    -0.78200
C16         C  0.24881429  0.12433308  0.87769581     0.84300
C17         C  0.28632218  0.20200680  0.78437541     0.84000
O18         O  0.26850435  0.09183922  0.79729522    -0.77200
C19         C  0.41701041  0.20771930  0.78589610     0.84800
O20         O  0.24581967  0.12231286  0.85124836    -0.77300
C21         C  0.37488538  0.25261890  0.87517556     0.84900
C22         C  0.37728694  0.12434219  0.87640293     0.85300
O23         O  0.36221805  0.14069238  0.88855483    -0.79700
C24         C  0.16576340  0.32957819  0.68529353    -0.01200
C25         C  0.00020165  0.99996309  0.98172056    -0.01200
O26         O  0.43123672  0.48614416  0.53953958    -0.77200
C27         C  0.04327927  0.08288544  0.54858031     0.83900
O28         O  0.47315872  0.02429850  0.44516984    -0.78300
O29         O  0.09116973  0.04734150  0.48181089    -0.79800
O30         O  0.01782217  0.43910828  0.53789715    -0.79600
O31         O  0.43497159  0.43503453  0.54163022    -0.78200
Zn32       Zn  0.47544394  0.02257991  0.51635682     1.55700
O33         O  0.07009822  0.49400248  0.53808585    -0.79600
Cd34       Cd  0.47926286  0.44728581  0.51576898     1.59700
Cd35       Cd  0.50102774  0.49802181  0.45994454     1.59600
O36         O  0.45832336  0.40994400  0.48290407    -0.79600
O37         O  0.50223252  0.49903301  0.50190151    -1.90100
Cd38       Cd  0.05572803  0.02727178  0.51516082     1.59900
O39         O  0.47374160  0.44403391  0.44446130    -0.79600
O40         O  0.06498666  0.07184863  0.53971103    -0.78200
C41         C  0.45737794  0.03973763  0.45758779     0.84300
C42         C  0.41917386  0.45333694  0.54830964     0.84000
O43         O  0.00865451  0.06642731  0.54178207    -0.77200
C44         C  0.05206327  0.46003998  0.54495773     0.84800
O45         O  0.45640835  0.04070469  0.48417574    -0.77300
C46         C  0.45842223  0.41268444  0.45643870     0.84900
C47         C  0.08715642  0.04430183  0.45540597     0.85300
O48         O  0.05490961  0.02587187  0.44382842    -0.79700
C49         C  0.33449772  0.16459779  0.35143278    -0.01200
C50         C  0.16985466  0.33115078  0.65014322    -0.01200
O51         O  0.23918580  0.39420209  0.13030223    -0.77200
C52         C  0.12689428  0.37923007  0.12363295     0.83900
O53         O  0.19312459  0.38518320  0.22503778    -0.78300
O54         O  0.07926084  0.28889630  0.18524421    -0.79800
O55         O  0.15576931  0.26062890  0.13054145    -0.79600
O56         O  0.23684925  0.34007555  0.12723951    -0.78200
Zn57       Zn  0.19499703  0.38465713  0.15396778     1.55700
O58         O  0.10422845  0.26474772  0.12742110    -0.79600
Cd59       Cd  0.19308377  0.30696497  0.15291437     1.59700
Cd60       Cd  0.16824109  0.33206296  0.20892485     1.59600
O61         O  0.21444732  0.29031492  0.18513654    -0.79600
O62         O  0.16849523  0.33405900  0.16712689    -1.90100
Cd63       Cd  0.11603856  0.30940426  0.15274637     1.59900
O64         O  0.19821775  0.30789450  0.22378620    -0.79600
O65         O  0.10561836  0.34566938  0.13062497    -0.78200
C66         C  0.21004835  0.41659535  0.21324335     0.84300
C67         C  0.25189394  0.37412892  0.12101176     0.84000
O68         O  0.16134811  0.39682326  0.13083880    -0.77200
C69         C  0.12238362  0.24844035  0.12172272     0.84800
O70         O  0.21305078  0.41944422  0.18682418    -0.77300
C71         C  0.21436158  0.29267940  0.21161715     0.84900
C72         C  0.08217735  0.28738638  0.21159320     0.85300
O73         O  0.11402899  0.30199387  0.22389675    -0.79700
C74         C  0.00038912  0.00075896  0.01746324    -0.01200
C75         C  0.33442576  0.16422867  0.31586608    -0.01200
C76         C  0.39523758  0.46820908  0.03641548    -0.26900
C77         C  0.38714147  0.44102410  0.05621724     0.06700
C78         C  0.41488766  0.43290940  0.06369289     0.26300
C79         C  0.44998842  0.45151052  0.05140411    -0.11400
C80         C  0.45913401  0.47831213  0.02998478    -0.25300
C81         C  0.43046786  0.48733038  0.02423462     0.37100
C82         C  0.35119062  0.42386856  0.07115059     0.06700
F83         F  0.40904573  0.40872713  0.08450824    -0.19100
H84         H  0.47012893  0.44569460  0.06085253     0.16600
F85         F  0.43723182  0.01790528  0.01027562    -0.22800
H86         H  0.37464373  0.47611615  0.03129895     0.18300
C87         C  0.33920881  0.44591390  0.08460904     0.26300
C88         C  0.30653274  0.42952431  0.10025354    -0.11300
C89         C  0.28524164  0.39087960  0.10292786    -0.25400
C90         C  0.29688683  0.36882763  0.08882373     0.37300
C91         C  0.32955551  0.38528805  0.07316193    -0.27000
F92         F  0.35996812  0.48337221  0.08367204    -0.19100
H93         H  0.29844467  0.44725004  0.11087395     0.16600
F94         F  0.27692289  0.33136746  0.09015863    -0.22800
H95         H  0.33819512  0.36786926  0.06271883     0.18400
C96         C  0.05541419  0.17153119  0.07266496    -0.26900
C97         C  0.07040670  0.14802037  0.07318870     0.06700
C98         C  0.10218864  0.15748754  0.08979031     0.26300
C99         C  0.11900576  0.19029589  0.10528665    -0.11400
C100        C  0.10425264  0.21410169  0.10475908    -0.25300
C101        C  0.07210449  0.20433951  0.08830092     0.37100
C102        C  0.05206928  0.11289766  0.05730838     0.06700
F103        F  0.11623513  0.13439503  0.09172107    -0.19100
H104        H  0.14329715  0.19674181  0.11810677     0.16600
F105        F  0.05704261  0.22659875  0.08697274    -0.22800
H106        H  0.03080134  0.16446493  0.06003278     0.18300
C107        C  0.01533119  0.08609786  0.06289099     0.26300
C108        C  0.99944753  0.05128972  0.05036120    -0.11300
C109        C  0.01841783  0.04175462  0.03007326    -0.25400
C110        C  0.05662477  0.06983708  0.02576452     0.37300
C111        C  0.07246286  0.10455015  0.03871687    -0.27000
F112        F  0.99550874  0.09253296  0.08226597    -0.19100
H113        H  0.47285707  0.03177954  0.05891173     0.16600
F114        F  0.08092395  0.06323982  0.01214942    -0.22800
H115        H  0.10161037  0.12459464  0.03511131     0.18400
C116        C  0.03343630  0.43041442  0.03933609    -0.26900
C117        C  0.06184739  0.45050982  0.05890789     0.06700
C118        C  0.07107372  0.48679523  0.06493836     0.26300
C119        C  0.05188884  0.50230333  0.05192490    -0.11400
C120        C  0.02357945  0.48332826  0.03093932    -0.25300
C121        C  0.01387970  0.44564065  0.02639112     0.37100
C122        C  0.07882564  0.43224195  0.07508506     0.06700
F123        F  0.09683749  0.50662966  0.08511497    -0.19100
H124        H  0.05778744  0.02835261  0.06098512     0.16600
F125        F  0.98262074  0.42119703  0.01259558    -0.22800
H126        H  0.02488752  0.40180460  0.03495450     0.18300
C127        C  0.05600620  0.39770454  0.08751480     0.26300
C128        C  0.07191689  0.38077382  0.10301853    -0.11300
C129        C  0.11090156  0.39797578  0.10689797    -0.25400
C130        C  0.13377624  0.43285701  0.09476844     0.37300
C131        C  0.11779916  0.44960282  0.07892761    -0.27000
F132        F  0.01814513  0.38076079  0.08547049    -0.19100
H133        H  0.05347165  0.35424847  0.11235399     0.16600
F134        F  0.17156064  0.45076056  0.09794270    -0.22800
H135        H  0.13595208  0.47616136  0.06951785     0.18400
C136        C  0.25507726  0.26572378  0.27276795    -0.26900
C137        C  0.26965487  0.24613520  0.25909171     0.06700
C138        C  0.26566433  0.24170954  0.23000478     0.26300
C139        C  0.24793972  0.25711988  0.21488415    -0.11400
C140        C  0.23344662  0.27702536  0.22838213    -0.25300
C141        C  0.23721912  0.28118040  0.25764071     0.37100
C142        C  0.28735113  0.22872047  0.27520002     0.06700
F143        F  0.27777937  0.22136112  0.21626917    -0.19100
H144        H  0.24516990  0.25296517  0.19250532     0.16600
F145        F  0.22376760  0.30011378  0.27171916    -0.22800
H146        H  0.25763996  0.26910662  0.29521942     0.18300
C147        C  0.32272539  0.23488214  0.26845852     0.26300
C148        C  0.33725758  0.21495721  0.28149394    -0.11300
C149        C  0.31730411  0.18755840  0.30219802    -0.25400
C150        C  0.28101320  0.18217712  0.30837047     0.37300
C151        C  0.26719868  0.20300038  0.29563970    -0.27000
F152        F  0.34330272  0.26001673  0.24877487    -0.19100
H153        H  0.36426407  0.22140404  0.27398674     0.16600
F154        F  0.25519477  0.15282693  0.32249098    -0.22800
H155        H  0.23901869  0.19677667  0.30023714     0.18400
C156        C  0.24345920  0.48288884  0.27529497    -0.26900
C157        C  0.25792053  0.01725312  0.26173681     0.06700
C158        C  0.25704073  0.01825264  0.23250122     0.26300
C159        C  0.24107172  0.48521839  0.21713855    -0.11400
C160        C  0.22646059  0.45084605  0.23038977    -0.25300
C161        C  0.22781909  0.44998973  0.25976687     0.37100
C162        C  0.27401297  0.05188105  0.27812092     0.06700
F163        F  0.27167740  0.05096471  0.21892342    -0.19100
H164        H  0.24061207  0.48693232  0.19463388     0.16600
F165        F  0.21426444  0.41755871  0.27356290    -0.22800
H166        H  0.24427805  0.48180727  0.29782951     0.18300
C167        C  0.26049141  0.07611689  0.27446457     0.26300
C168        C  0.27877442  0.11099792  0.28691124    -0.11300
C169        C  0.31092359  0.12315802  0.30456959    -0.25400
C170        C  0.32398896  0.09748027  0.30784098     0.37300
C171        C  0.30528466  0.06243874  0.29526884    -0.27000
F172        F  0.23022446  0.06663232  0.25772396    -0.19100
H173        H  0.26803546  0.12838487  0.28042748     0.16600
F174        F  0.35761477  0.10745252  0.31961678    -0.22800
H175        H  0.31688986  0.04439999  0.29738651     0.18400
C176        C  0.41536228  0.18124283  0.26453549    -0.26900
C177        C  0.44596579  0.21327041  0.27530973     0.06700
C178        C  0.44077596  0.23015304  0.29860205     0.26300
C179        C  0.40572910  0.21460175  0.31109798    -0.11400
C180        C  0.37485010  0.18002561  0.30264689    -0.25300
C181        C  0.38033003  0.16593257  0.27680420     0.37100
C182        C  0.48123495  0.23171777  0.25949794     0.06700
F183        F  0.46898242  0.26305675  0.30833991    -0.19100
H184        H  0.40391527  0.23080490  0.32754042     0.16600
F185        F  0.35163406  0.14019135  0.26091605    -0.22800
H186        H  0.41800445  0.16911479  0.24531103     0.18300
C187        C  0.01619273  0.24329185  0.27230126     0.26300
C188        C  0.04900076  0.26140789  0.25671569    -0.11300
C189        C  0.04744068  0.26808381  0.22811307    -0.25400
C190        C  0.01218125  0.25595399  0.21541175     0.37300
C191        C  0.97967638  0.23815173  0.23099946    -0.27000
F192        F  0.01853836  0.23646351  0.29966723    -0.19100
H193        H  0.07559728  0.27000577  0.26702253     0.16600
F194        F  0.00882543  0.26159993  0.18794781    -0.22800
H195        H  0.45306132  0.22976255  0.22077635     0.18400
C196        C  0.22913407  0.09386204  0.37082054    -0.26900
C197        C  0.22029446  0.11522691  0.38797350     0.06700
C198        C  0.24641301  0.15276856  0.39134929     0.26300
C199        C  0.28148419  0.16813307  0.37913925    -0.11400
C200        C  0.29282548  0.14684579  0.36286730    -0.25300
C201        C  0.26421266  0.10886970  0.35843667     0.37100
C202        C  0.18562372  0.09757246  0.40458928     0.06700
F203        F  0.23823252  0.17486455  0.40693377    -0.19100
H204        H  0.29921788  0.19719836  0.38333665     0.16600
F205        F  0.27067762  0.08390195  0.34566553    -0.22800
H206        H  0.20957233  0.06451132  0.36838300     0.18300
C207        C  0.15048233  0.07328148  0.39241492     0.26300
C208        C  0.11850794  0.05616623  0.40894311    -0.11300
C209        C  0.12102833  0.06279102  0.43789056    -0.25400
C210        C  0.15637440  0.08719874  0.44991738     0.37300
C211        C  0.18811657  0.10413407  0.43342349    -0.27000
F212        F  0.14697794  0.06648837  0.36454617    -0.19100
H213        H  0.09178915  0.03757615  0.39905837     0.16600
F214        F  0.16056307  0.09496524  0.47765208    -0.22800
H215        H  0.21498018  0.12213270  0.44336336     0.18400
C216        C  0.38851975  0.24419076  0.40673808    -0.26900
C217        C  0.39038092  0.27498382  0.39399136     0.06700
C218        C  0.37439875  0.27070279  0.36750651     0.26300
C219        C  0.35739219  0.23635804  0.35397005    -0.11400
C220        C  0.35705992  0.20475290  0.36535910    -0.25300
C221        C  0.37110820  0.20966509  0.39347062     0.37100
C222        C  0.40668884  0.31072833  0.40929852     0.06700
F223        F  0.37326572  0.29933912  0.35523283    -0.19100
H224        H  0.34405594  0.23589212  0.33465771     0.16600
F225        F  0.36591119  0.18095156  0.40959656    -0.22800
H226        H  0.39952101  0.24652741  0.42772952     0.18300
C227        C  0.39518118  0.31215558  0.43649952     0.26300
C228        C  0.41188257  0.34546560  0.45142112    -0.11300
C229        C  0.44004806  0.37820725  0.43948217    -0.25400
C230        C  0.45069940  0.37706873  0.41186477     0.37300
C231        C  0.43420504  0.34352966  0.39701007    -0.27000
F232        F  0.36738471  0.28137696  0.44854821    -0.19100
H233        H  0.40262266  0.34563708  0.47242221     0.16600
F234        F  0.47794536  0.40795959  0.39956276    -0.22800
H235        H  0.44350409  0.34299943  0.37608314     0.18400
C236        C  0.40884484  0.13666970  0.37574601    -0.26900
C237        C  0.38752873  0.10482581  0.39117533     0.06700
C238        C  0.34954779  0.09208920  0.39420621     0.26300
C239        C  0.33314419  0.11074152  0.38182592    -0.11400
C240        C  0.35315051  0.14221007  0.36431907    -0.25300
C241        C  0.39263893  0.15586145  0.36363208     0.37100
C242        C  0.40590163  0.08851503  0.40779627     0.06700
F243        F  0.32848242  0.06258159  0.41066193    -0.19100
H244        H  0.30544670  0.10140252  0.38902519     0.16600
F245        F  0.41724211  0.19069519  0.35625995    -0.22800
H246        H  0.43894018  0.14862608  0.37511813     0.18300
C247        C  0.42103267  0.06886708  0.39503576     0.26300
C248        C  0.43770456  0.05312727  0.41129452    -0.11300
C249        C  0.43980370  0.05690506  0.44058992    -0.25400
C250        C  0.42499110  0.07721791  0.45318000     0.37300
C251        C  0.40811731  0.09262294  0.43688676    -0.27000
F252        F  0.41898689  0.06429722  0.36693187    -0.19100
H253        H  0.44879287  0.03776592  0.40088685     0.16600
F254        F  0.42692947  0.08252957  0.48120121    -0.22800
H255        H  0.39683882  0.10802948  0.44699605     0.18400
C256        C  0.27775487  0.39888108  0.63696368    -0.26900
C257        C  0.28253619  0.38523007  0.61171118     0.06700
C258        C  0.25127292  0.35579557  0.59876642     0.26300
C259        C  0.21636363  0.33988319  0.61132521    -0.11400
C260        C  0.21117210  0.35017895  0.63853141    -0.25300
C261        C  0.24274751  0.38282800  0.64966345     0.37100
C262        C  0.31933679  0.40331277  0.59778268     0.06700
F263        F  0.25402770  0.34335970  0.57323909    -0.19100
H264        H  0.19310651  0.31887089  0.59930992     0.16600
F265        F  0.24103682  0.40107228  0.67222210    -0.22800
H266        H  0.30123338  0.42277610  0.64675272     0.18300
C267        C  0.33856248  0.44152704  0.59267758     0.26300
C268        C  0.37131362  0.45761299  0.57708856    -0.11300
C269        C  0.38579359  0.43607550  0.56643038    -0.25400
C270        C  0.36735883  0.39802819  0.57268215     0.37300
C271        C  0.33442673  0.38194734  0.58809050    -0.27000
F272        F  0.32478776  0.46308159  0.60162255    -0.19100
H273        H  0.38498869  0.48696690  0.57295547     0.16600
F274        F  0.38036053  0.37599742  0.56330459    -0.22800
H275        H  0.32029602  0.35253812  0.59213670     0.18400
C276        C  0.05661026  0.15031741  0.60702497    -0.26900
C277        C  0.09226704  0.18033666  0.60099745     0.06700
C278        C  0.11101445  0.17784174  0.57747895     0.26300
C279        C  0.09488234  0.14596410  0.56085629    -0.11400
C280        C  0.05929839  0.11616232  0.56672028    -0.25300
C281        C  0.04005885  0.11859314  0.58990568     0.37100
C282        C  0.10976767  0.21480257  0.61831842     0.06700
F283        F  0.14453271  0.20677233  0.56994024    -0.19100
H284        H  0.10997862  0.14487730  0.54290454     0.16600
F285        F  0.00587078  0.08992716  0.59648519    -0.22800
H286        H  0.04168532  0.15128968  0.62511134     0.18300
C287        C  0.08994322  0.23254376  0.62558225     0.26300
C288        C  0.10866305  0.26812247  0.63733461    -0.11300
C289        C  0.14820976  0.28852123  0.64090585    -0.25400
C290        C  0.16665055  0.26769440  0.63698631     0.37300
C291        C  0.14772119  0.23190650  0.62573364    -0.27000
F292        F  0.05296730  0.21699406  0.61919476    -0.19100
H293        H  0.09199720  0.28077560  0.64014513     0.16600
F294        F  0.20323586  0.28150484  0.64386555    -0.22800
H295        H  0.16324618  0.21782299  0.62203748     0.18400
C296        C  0.06946813  0.39526180  0.58971457    -0.26900
C297        C  0.10864603  0.41277402  0.58994267     0.06700
C298        C  0.12931628  0.44664730  0.57614954     0.26300
C299        C  0.11083099  0.46228088  0.56203388    -0.11400
C300        C  0.07146264  0.44432719  0.56128094    -0.25300
C301        C  0.05098055  0.41080090  0.57568780     0.37100
C302        C  0.12703638  0.39407911  0.60337727     0.06700
F303        F  0.16720911  0.46376863  0.57527861    -0.19100
H304        H  0.12735163  0.48798905  0.55105461     0.16600
F305        F  0.01304816  0.39299120  0.57640176    -0.22800
H306        H  0.05310259  0.36924853  0.60037677     0.18300
C307        C  0.15463832  0.41128125  0.62410998     0.26300
C308        C  0.16958980  0.39168117  0.63733893    -0.11300
C309        C  0.15514738  0.35337865  0.63259718    -0.25400
C310        C  0.13298655  0.33943449  0.60761822     0.37300
C311        C  0.11757872  0.35859795  0.59454697    -0.27000
F312        F  0.16683311  0.44679398  0.63193699    -0.19100
H313        H  0.19274057  0.40717473  0.65133563     0.16600
F314        F  0.12909670  0.30959235  0.59348369    -0.22800
H315        H  0.09926347  0.34620674  0.57657600     0.18400
C316        C  0.42692921  0.35468824  0.89508814    -0.26900
C317        C  0.42796902  0.35327973  0.92426725     0.06700
C318        C  0.41001376  0.31867978  0.93733122     0.26300
C319        C  0.39249615  0.28610779  0.92131505    -0.11400
C320        C  0.39218887  0.28740489  0.89198390    -0.25300
C321        C  0.40924549  0.32229136  0.87905637     0.37100
C322        C  0.44722903  0.38818280  0.94069389     0.06700
F323        F  0.41019530  0.31636451  0.96553614    -0.19100
H324        H  0.37942263  0.25982894  0.93194460     0.16600
F325        F  0.40920415  0.32539174  0.85090749    -0.22800
H326        H  0.43973999  0.38110420  0.88463408     0.18300
C327        C  0.48353389  0.41566145  0.93430709     0.26300
C328        C  0.50000764  0.45008521  0.94763772    -0.11300
C329        C  0.48178111  0.45902919  0.96891774    -0.25400
C330        C  0.44388864  0.43041985  0.97386925     0.37300
C331        C  0.42786764  0.39577132  0.96073200    -0.27000
F332        F  0.50294897  0.40974185  0.91427811    -0.19100
H333        H  0.02649857  0.46987398  0.93906059     0.16600
F334        F  0.41965841  0.43633586  0.98817691    -0.22800
H335        H  0.39890779  0.37556991  0.96480699     0.18400
C336        C  0.14624110  0.07516101  0.89692108    -0.26900
C337        C  0.14812911  0.07610788  0.92613002     0.06700
C338        C  0.18335036  0.09222648  0.93948515     0.26300
C339        C  0.21605286  0.10785914  0.92371846    -0.11400
C340        C  0.21416341  0.10749204  0.89439315    -0.25300
C341        C  0.17866752  0.09073608  0.88117369     0.37100
C342        C  0.11296908  0.05981151  0.94212354     0.06700
F343        F  0.18615655  0.09355890  0.96771922    -0.19100
H344        H  0.24285456  0.12037614  0.93450577     0.16600
F345        F  0.17495359  0.08932703  0.85297885    -0.22800
H346        H  0.11938526  0.06207114  0.88616816     0.18300
C347        C  0.08511556  0.06801231  0.93518819     0.26300
C348        C  0.05017193  0.04913905  0.94755628    -0.11300
C349        C  0.04138887  0.02256709  0.96910220    -0.25400
C350        C  0.07007003  0.01351106  0.97445038     0.37300
C351        C  0.10515329  0.03256103  0.96185958    -0.27000
F352        F  0.09108719  0.09352950  0.91542368    -0.19100
H353        H  0.02987171  0.05468967  0.93806802     0.16600
F354        F  0.06357651  0.98319245  0.98852171    -0.22800
H355        H  0.12546623  0.02401933  0.96613907     0.18400
C356        C  0.42531438  0.07042629  0.89634356    -0.26900
C357        C  0.42326689  0.07017382  0.92547259     0.06700
C358        C  0.40697143  0.08857414  0.93855774     0.26300
C359        C  0.39236722  0.10644406  0.92256932    -0.11400
C360        C  0.39404173  0.10648417  0.89327522    -0.25300
C361        C  0.41100733  0.08836497  0.88033187     0.37100
C362        C  0.43937556  0.05154245  0.94183095     0.06700
F363        F  0.40451116  0.08857911  0.96673696    -0.19100
H364        H  0.37948452  0.12000455  0.93316011     0.16600
F365        F  0.41389712  0.08780245  0.85219848    -0.22800
H366        H  0.43842448  0.05692235  0.88595089     0.18300
C367        C  0.42873311  0.01481917  0.93627438     0.26300
C368        C  0.44762129  0.99881878  0.94887821    -0.11300
C369        C  0.47728131  0.01799601  0.96883874    -0.25400
C370        C  0.48807799  0.05611279  0.97315230     0.37300
C371        C  0.46884945  0.07183848  0.96045301    -0.27000
F372        F  0.40070282  0.99453400  0.91765993    -0.19100
H373        H  0.44006609  0.47202407  0.94036253     0.16600
F374        F  0.02038422  0.08046703  0.98589084    -0.22800
H375        H  0.47889572  0.10101758  0.96368644     0.18400
C376        C  0.17830990  0.24719730  0.71106622    -0.26900
C377        C  0.21673982  0.26496605  0.71676362     0.06700
C378        C  0.23921149  0.30172084  0.70836834     0.26300
C379        C  0.22304724  0.32099395  0.69672529    -0.11400
C380        C  0.18374622  0.30541828  0.69462798    -0.25300
C381        C  0.16198099  0.26655871  0.69981253     0.35600
C382        C  0.23291902  0.24586401  0.73274580     0.06700
F383        F  0.27667358  0.32025898  0.71344398    -0.19100
H384        H  0.24175891  0.34967152  0.69277258     0.16600
F385        F  0.12484308  0.24654818  0.69359500    -0.22800
H386        H  0.16063522  0.21811408  0.71563899     0.18300
C387        C  0.21580177  0.22654388  0.75728234     0.26300
C388        C  0.23274374  0.21115962  0.77343728    -0.11300
C389        C  0.26742858  0.21566514  0.76591063    -0.25400
C390        C  0.28428861  0.23431016  0.74124991     0.37300
C391        C  0.26683272  0.24873858  0.72460782    -0.27000
F392        F  0.18374274  0.22417762  0.76648807    -0.19100
H393        H  0.21954056  0.19706555  0.79251814     0.16600
F394        F  0.31747289  0.23830663  0.73316363    -0.22800
H395        H  0.28014308  0.26266827  0.70552400     0.18400
C396        C  0.05887667  0.29433914  0.69837102    -0.26900
C397        C  0.05446895  0.27809905  0.72448744     0.06700
C398        C  0.08580335  0.28133802  0.73833575     0.26300
C399        C  0.12030585  0.29835483  0.72541409    -0.11400
C400        C  0.12490119  0.31065372  0.69730072    -0.25300
C401        C  0.09374608  0.31180261  0.68544278     0.37100
C402        C  0.01775708  0.25929003  0.73809002     0.06700
F403        F  0.08332264  0.26890763  0.76478461    -0.19100
H404        H  0.14371883  0.30115870  0.73761843     0.16600
F405        F  0.09622501  0.33144510  0.66254436    -0.22800
H406        H  0.03532317  0.29420108  0.68813920     0.18300
C407        C  0.49788331  0.27775637  0.74293316     0.26300
C408        C  0.46483561  0.26059620  0.75810535    -0.11300
C409        C  0.45100055  0.22471313  0.76860645    -0.25400
C410        C  0.47055944  0.20592945  0.76295492     0.37300
C411        C  0.00359762  0.22319410  0.74787065    -0.27000
F412        F  0.51127710  0.31294118  0.73408693    -0.19100
H413        H  0.45040635  0.27571674  0.76199776     0.16600
F414        F  0.45849932  0.17129001  0.77254701    -0.22800
H415        H  0.01858036  0.20855599  0.74415797     0.18400
C416        C  0.22380240  0.40990552  0.73974790    -0.26900
C417        C  0.21356247  0.43582242  0.73232334     0.06700
C418        C  0.18483248  0.42570197  0.71261438     0.26300
C419        C  0.16914153  0.39141511  0.69903790    -0.11400
C420        C  0.18319086  0.36696637  0.70271893    -0.25300
C421        C  0.20732819  0.37529279  0.72664447     0.37100
C422        C  0.23201488  0.47249500  0.74625197     0.06700
F423        F  0.17212093  0.44905363  0.70613889    -0.19100
H424        H  0.14556603  0.38429839  0.68555160     0.16600
F425        F  0.21186184  0.34948702  0.74027095    -0.22800
H426        H  0.24326684  0.41576975  0.75694434     0.18300
C427        C  0.21121814  0.48547990  0.76036693     0.26300
C428        C  0.22967469  0.02004804  0.77352884    -0.11300
C429        C  0.26893856  0.04201223  0.77349850    -0.25400
C430        C  0.28970865  0.02881269  0.75939740     0.37300
C431        C  0.27145517  0.99444813  0.74585814    -0.27000
F432        F  0.17344848  0.46428500  0.76206951    -0.19100
H433        H  0.21296451  0.02914884  0.78453573     0.16600
F434        F  0.32762559  0.04902565  0.75852972    -0.22800
H435        H  0.28794083  0.98482998  0.73513244     0.18400
O436        O  0.26748364  0.66940812  0.79430599    -0.77200
C437        C  0.28756432  0.57753964  0.78926639     0.83900
O438        O  0.28099893  0.64055945  0.89011062    -0.78300
O439        O  0.37776927  0.62221328  0.84992739    -0.79800
O440        O  0.40313149  0.72721214  0.79346757    -0.79600
O441        O  0.32090468  0.72284140  0.78998178    -0.78200
Zn442      Zn  0.27993877  0.63802411  0.81896825     1.55700
O443        O  0.40297992  0.67400711  0.79309544    -0.79600
Cd444      Cd  0.35667611  0.71601105  0.81635185     1.59700
Cd445      Cd  0.33442668  0.66707282  0.87344844     1.59600
O446        O  0.37400726  0.75448512  0.84842079    -0.79600
O447        O  0.33162157  0.66492538  0.83159174    -1.90100
Cd448      Cd  0.35804883  0.63961337  0.81736441     1.59900
O449        O  0.36172267  0.72171422  0.88736859    -0.79600
O450        O  0.32253630  0.59307659  0.79438190    -0.78200
C451        C  0.24897663  0.62452010  0.87802501     0.84300
C452        C  0.28633158  0.70170929  0.78419190     0.84000
O453        O  0.26831728  0.59167308  0.79764761    -0.77200
C454        C  0.41728226  0.70768943  0.78597962     0.84800
O455        O  0.24586211  0.62246245  0.85157951    -0.77300
C456        C  0.37489551  0.75265556  0.87492363     0.84900
C457        C  0.37732607  0.62430838  0.87637464     0.85300
O458        O  0.36237217  0.64076388  0.88853226    -0.79700
C459        C  0.16610582  0.82954724  0.68515902    -0.01200
C460        C  0.00020530  0.50003349  0.98182866    -0.01200
O461        O  0.43163182  0.98634234  0.53953656    -0.77200
C462        C  0.04302518  0.58264389  0.54866577     0.83900
O463        O  0.47318686  0.52435758  0.44515386    -0.78300
O464        O  0.09093570  0.54688437  0.48197927    -0.79800
O465        O  0.01836420  0.93951138  0.53790526    -0.79600
O466        O  0.43541369  0.93526126  0.54164533    -0.78200
Zn467      Zn  0.47512109  0.52241817  0.51638363     1.55700
O468        O  0.07064668  0.99439833  0.53798999    -0.79600
Cd469      Cd  0.47970314  0.94751476  0.51576296     1.59700
Cd470      Cd  0.50117590  0.99809561  0.45989400     1.59600
O471        O  0.45875978  0.91007145  0.48293251    -0.79600
O472        O  0.50257155  0.99922651  0.50185313    -1.90100
Cd473      Cd  0.05535626  0.52696332  0.51525242     1.59900
O474        O  0.47385853  0.94404507  0.44445233    -0.79600
O475        O  0.06469403  0.57157170  0.53977917    -0.78200
C476        C  0.45731354  0.53973332  0.45752910     0.84300
C477        C  0.41959263  0.95354757  0.54831478     0.84000
O478        O  0.00839007  0.56623219  0.54188291    -0.77200
C479        C  0.05261931  0.96045457  0.54492720     0.84800
O480        O  0.45619135  0.54060455  0.48411951    -0.77300
C481        C  0.45866282  0.91271343  0.45646082     0.84900
C482        C  0.08700808  0.54385020  0.45557189     0.85300
O483        O  0.05478133  0.52559513  0.44394697    -0.79700
C484        C  0.33425342  0.66440083  0.35136344    -0.01200
C485        C  0.17013362  0.83114439  0.64999957    -0.01200
O486        O  0.23922188  0.89440690  0.13015439    -0.77200
C487        C  0.12688861  0.87933516  0.12370276     0.83900
O488        O  0.19338282  0.88549316  0.22492586    -0.78300
O489        O  0.07925142  0.78912272  0.18527695    -0.79800
O490        O  0.15587248  0.76090294  0.13043922    -0.79600
O491        O  0.23690857  0.84029291  0.12711647    -0.78200
Zn492      Zn  0.19507703  0.88483922  0.15389641     1.55700
O493        O  0.10423606  0.76486231  0.12749398    -0.79600
Cd494      Cd  0.19315714  0.80722316  0.15282333     1.59700
Cd495      Cd  0.16825494  0.83231864  0.20888620     1.59600
O496        O  0.21447895  0.79056959  0.18504898    -0.79600
O497        O  0.16853895  0.83426019  0.16709096    -1.90100
Cd498      Cd  0.11605210  0.80953278  0.15278250     1.59900
O499        O  0.19804441  0.80794070  0.22370858    -0.79600
O500        O  0.10563270  0.84575990  0.13065946    -0.78200
C501        C  0.21033181  0.91689007  0.21310863     0.84300
C502        C  0.25192960  0.87433504  0.12086477     0.84000
O503        O  0.16134635  0.89694147  0.13088547    -0.77200
C504        C  0.12244187  0.74863804  0.12170104     0.84800
O505        O  0.21326619  0.91970290  0.18668767    -0.77300
C506        C  0.21424779  0.79278860  0.21153222     0.84900
C507        C  0.08216376  0.78780298  0.21164099     0.85300
O508        O  0.11402729  0.80249383  0.22393718    -0.79700
C509        C  0.00037897  0.50085289  0.01756354    -0.01200
C510        C  0.33417651  0.66412274  0.31579405    -0.01200
C511        C  0.39535932  0.96837227  0.03640223    -0.26900
C512        C  0.38711852  0.94095999  0.05602930     0.06700
C513        C  0.41465844  0.93246129  0.06326482     0.26300
C514        C  0.44977600  0.95103180  0.05099938    -0.11400
C515        C  0.45912421  0.97818985  0.02982991    -0.25300
C516        C  0.43056555  0.98738920  0.02417248     0.37100
C517        C  0.35123135  0.92392707  0.07102821     0.06700
F518        F  0.40860300  0.90790530  0.08383506    -0.19100
H519        H  0.46974366  0.94486078  0.06028399     0.16600
F520        F  0.43696348  0.51767899  0.01018900    -0.22800
H521        H  0.37490410  0.97652732  0.03147342     0.18300
C522        C  0.33977953  0.94606946  0.08499364     0.26300
C523        C  0.30708665  0.92974774  0.10062329    -0.11300
C524        C  0.28526964  0.89107331  0.10277918    -0.25400
C525        C  0.29640594  0.86894773  0.08818722     0.37300
C526        C  0.32909895  0.88534136  0.07254841    -0.27000
F527        F  0.36106396  0.98351429  0.08454353    -0.19100
H528        H  0.29940086  0.94751724  0.11164741     0.16600
F529        F  0.27587562  0.83147715  0.08898682    -0.22800
H530        H  0.33734919  0.86786680  0.06171823     0.18400
C531        C  0.05505061  0.67139375  0.07305436    -0.26900
C532        C  0.07045987  0.64823360  0.07313442     0.06700
C533        C  0.10272118  0.65809583  0.08926687     0.26300
C534        C  0.11953917  0.69090208  0.10476081    -0.11400
C535        C  0.10432524  0.71432072  0.10470934    -0.25300
C536        C  0.07173445  0.70418756  0.08869982     0.37100
C537        C  0.05208446  0.61306996  0.05729001     0.06700
F538        F  0.11725205  0.63538081  0.09076907    -0.19100
H539        H  0.14420161  0.69763732  0.11721416     0.16600
F540        F  0.05618782  0.72604433  0.08784106    -0.22800
H541        H  0.03009660  0.66405775  0.06077067     0.18300
C542        C  0.01535090  0.58625818  0.06290562     0.26300
C543        C  0.99945530  0.55143550  0.05039681    -0.11300
C544        C  0.01844710  0.54185157  0.03016505    -0.25400
C545        C  0.05662148  0.56997448  0.02577743     0.37300
C546        C  0.07243364  0.60472018  0.03865777    -0.27000
F547        F  0.99552787  0.59269920  0.08227629    -0.19100
H548        H  0.47281843  0.53196487  0.05890255     0.16600
F549        F  0.08095412  0.56341318  0.01217640    -0.22800
H550        H  0.10154902  0.62479169  0.03496751     0.18400
C551        C  0.03377905  0.93059019  0.03928864    -0.26900
C552        C  0.06180297  0.95060980  0.05913198     0.06700
C553        C  0.07065718  0.98673504  0.06534383     0.26300
C554        C  0.05152115  0.00218904  0.05218793    -0.11400
C555        C  0.02360398  0.98330439  0.03092376    -0.25300
C556        C  0.01422556  0.94573374  0.02623232     0.37100
C557        C  0.07877874  0.93239105  0.07533682     0.06700
F558        F  0.09598126  0.00642835  0.08580746    -0.19100
H559        H  0.05846856  0.52860117  0.06062644     0.16600
F560        F  0.98332457  0.92129864  0.01208677    -0.22800
H561        H  0.02552599  0.90208669  0.03476194     0.18300
C562        C  0.05598342  0.89767503  0.08751394     0.26300
C563        C  0.07190706  0.88072879  0.10297086    -0.11300
C564        C  0.11087209  0.89809549  0.10704081    -0.25400
C565        C  0.13371033  0.93316967  0.09518522     0.37300
C566        C  0.11772257  0.94993666  0.07939824    -0.27000
F567        F  0.01812864  0.88055202  0.08524570    -0.19100
H568        H  0.05348684  0.85405107  0.11210289     0.16600
F569        F  0.17146994  0.95124966  0.09857991    -0.22800
H570        H  0.13584322  0.97664562  0.07018769     0.18400
C571        C  0.25395706  0.76482130  0.27272691    -0.26900
C572        C  0.26918693  0.74586459  0.25899105     0.06700
C573        C  0.26595427  0.74219776  0.22983166     0.26300
C574        C  0.24836856  0.75775536  0.21472306    -0.11400
C575        C  0.23322649  0.77702427  0.22829146    -0.25300
C576        C  0.23620956  0.78039526  0.25761018     0.37100
C577        C  0.28686728  0.72840790  0.27508738     0.06700
F578        F  0.27867199  0.72244140  0.21598175    -0.19100
H579        H  0.24622109  0.75421004  0.19228657     0.16600
F580        F  0.22205000  0.79863451  0.27176439    -0.22800
H581        H  0.25592875  0.76762920  0.29522292     0.18300
C582        C  0.32233954  0.73475472  0.26845557     0.26300
C583        C  0.33690327  0.71485466  0.28147216    -0.11300
C584        C  0.31698524  0.68741475  0.30215590    -0.25400
C585        C  0.28064696  0.68193596  0.30830710     0.37300
C586        C  0.26671397  0.70261552  0.29549388    -0.27000
F587        F  0.34301144  0.76006960  0.24890326    -0.19100
H588        H  0.36389770  0.72133744  0.27392263     0.16600
F589        F  0.25495068  0.65268872  0.32257951    -0.22800
H590        H  0.23849396  0.69628992  0.30005919     0.18400
C591        C  0.24370672  0.98318336  0.27514211    -0.26900
C592        C  0.25748938  0.51694405  0.26188991     0.06700
C593        C  0.25643227  0.51791533  0.23265892     0.26300
C594        C  0.24165538  0.98555180  0.21697674    -0.11400
C595        C  0.22684101  0.95116046  0.23023547    -0.25300
C596        C  0.22804796  0.95029178  0.25961499     0.37100
C597        C  0.27363128  0.55160845  0.27824246     0.06700
F598        F  0.27089677  0.55060817  0.21907360    -0.19100
H599        H  0.24132168  0.98727445  0.19446826     0.16600
F600        F  0.21429705  0.91784899  0.27342058    -0.22800
H601        H  0.24438264  0.98208418  0.29768046     0.18300
C602        C  0.26009001  0.57583238  0.27459701     0.26300
C603        C  0.27850555  0.61081226  0.28688830    -0.11300
C604        C  0.31074954  0.62305536  0.30445246    -0.25400
C605        C  0.32383928  0.59738927  0.30770972     0.37300
C606        C  0.30504698  0.56227714  0.29524930    -0.27000
F607        F  0.22965397  0.56622315  0.25801843    -0.19100
H608        H  0.26772113  0.62816370  0.28041627     0.16600
F609        F  0.35756281  0.60742568  0.31932625    -0.22800
H610        H  0.31668799  0.54426497  0.29733407     0.18400
C611        C  0.41545955  0.68149672  0.26468325    -0.26900
C612        C  0.44584756  0.71379870  0.27534384     0.06700
C613        C  0.44037954  0.73072012  0.29849165     0.26300
C614        C  0.40530713  0.71492071  0.31098461    -0.11400
C615        C  0.37465556  0.68012295  0.30262002    -0.25300
C616        C  0.38037408  0.66598452  0.27689355     0.37100
C617        C  0.48116341  0.73235935  0.25956521     0.06700
F618        F  0.46831276  0.76387131  0.30808439    -0.19100
H619        H  0.40324494  0.73111354  0.32731580     0.16600
F620        F  0.35184453  0.63999511  0.26102361    -0.22800
H621        H  0.41829090  0.66928683  0.24557137     0.18300
C622        C  0.01617231  0.74451233  0.27248488     0.26300
C623        C  0.04899224  0.76257061  0.25689910    -0.11300
C624        C  0.04741077  0.76861722  0.22817725    -0.25400
C625        C  0.01210870  0.75594931  0.21537070     0.37300
C626        C  0.97959158  0.73821294  0.23095685    -0.27000
F627        F  0.01856753  0.73827112  0.29997020    -0.19100
H628        H  0.07561848  0.77160447  0.26730315     0.16600
F629        F  0.00870728  0.76094284  0.18778592    -0.22800
H630        H  0.45294584  0.72938230  0.22062800     0.18400
C631        C  0.22890160  0.59352695  0.37074644    -0.26900
C632        C  0.22018825  0.61470500  0.38820560     0.06700
C633        C  0.24639729  0.65216087  0.39187449     0.26300
C634        C  0.28139893  0.66765119  0.37954422    -0.11400
C635        C  0.29260856  0.64656712  0.36288950    -0.25300
C636        C  0.26396351  0.60862550  0.35832267     0.37100
C637        C  0.18556427  0.59689929  0.40484709     0.06700
F638        F  0.23839717  0.67402741  0.40791078    -0.19100
H639        H  0.29922619  0.69660634  0.38407705     0.16600
F640        F  0.27039957  0.58372479  0.34541828    -0.22800
H641        H  0.20927189  0.56421804  0.36812754     0.18300
C642        C  0.15032672  0.57323991  0.39256544     0.26300
C643        C  0.11833552  0.55614120  0.40907467    -0.11300
C644        C  0.12094402  0.56215005  0.43810777    -0.25400
C645        C  0.15642483  0.58581299  0.45025339     0.37300
C646        C  0.18817555  0.60275481  0.43377055    -0.27000
F647        F  0.14675168  0.56710741  0.36461324    -0.19100
H648        H  0.09152378  0.53810390  0.39909728     0.16600
F649        F  0.16074362  0.59284836  0.47809155    -0.22800
H650        H  0.21512664  0.62024228  0.44376743     0.18400
C651        C  0.38905286  0.74422496  0.40642268    -0.26900
C652        C  0.39017438  0.77484334  0.39395381     0.06700
C653        C  0.37343523  0.77032889  0.36772168     0.26300
C654        C  0.35645349  0.73596948  0.35417368    -0.11400
C655        C  0.35683421  0.70457558  0.36528294    -0.25300
C656        C  0.37158291  0.70967260  0.39319211     0.37100
C657        C  0.40654409  0.81060069  0.40932527     0.06700
F658        F  0.37148207  0.79869613  0.35575236    -0.19100
H659        H  0.34235885  0.73522048  0.33518685     0.16600
F660        F  0.36695547  0.68110059  0.40924495    -0.22800
H661        H  0.40066688  0.74668476  0.42721129     0.18300
C662        C  0.39625702  0.81180768  0.43697040     0.26300
C663        C  0.41309153  0.84513052  0.45188763    -0.11300
C664        C  0.44018035  0.87814475  0.43954533    -0.25400
C665        C  0.44956869  0.87720753  0.41152026     0.37300
C666        C  0.43296484  0.84365602  0.39665999    -0.27000
F667        F  0.36948784  0.78079967  0.44948733    -0.19100
H668        H  0.40474649  0.84507767  0.47321395     0.16600
F669        F  0.47565673  0.90834799  0.39874498    -0.22800
H670        H  0.44135362  0.84334493  0.37539912     0.18400
C671        C  0.40863118  0.63636340  0.37535030    -0.26900
C672        C  0.38738046  0.60458486  0.39087201     0.06700
C673        C  0.34939835  0.59184638  0.39395095     0.26300
C674        C  0.33296438  0.61050141  0.38163122    -0.11400
C675        C  0.35292360  0.64197270  0.36412529    -0.25300
C676        C  0.39239025  0.65554536  0.36326946     0.37100
C677        C  0.40582094  0.58836496  0.40754462     0.06700
F678        F  0.32834945  0.56231008  0.41038627    -0.19100
H679        H  0.30526776  0.60112922  0.38885167     0.16600
F680        F  0.41696938  0.69028942  0.35568802    -0.22800
H681        H  0.43871716  0.64829173  0.37462618     0.18300
C682        C  0.42200809  0.56967902  0.39480253     0.26300
C683        C  0.43869121  0.55399785  0.41112285    -0.11300
C684        C  0.43978934  0.55690864  0.44046661    -0.25400
C685        C  0.42397700  0.57631702  0.45304047     0.37300
C686        C  0.40707857  0.59163854  0.43668601    -0.27000
F687        F  0.42095249  0.56594274  0.36664724    -0.19100
H688        H  0.45058581  0.53936860  0.40071716     0.16600
F689        F  0.42488275  0.58076276  0.48111753    -0.22800
H690        H  0.39502236  0.60633283  0.44679875     0.18400
C691        C  0.27803266  0.89893460  0.63680006    -0.26900
C692        C  0.28280534  0.88533929  0.61152371     0.06700
C693        C  0.25154452  0.85592920  0.59855889     0.26300
C694        C  0.21662999  0.83999149  0.61112272    -0.11400
C695        C  0.21145101  0.85020840  0.63836309    -0.25300
C696        C  0.24303897  0.88283455  0.64951877     0.37100
C697        C  0.31961215  0.90344941  0.59761415     0.06700
F698        F  0.25431470  0.84354255  0.57301571    -0.19100
H699        H  0.19336086  0.81901771  0.59909169     0.16600
F700        F  0.24135963  0.90103497  0.67211393    -0.22800
H701        H  0.30151315  0.92282096  0.64659739     0.18300
C702        C  0.33876742  0.94164809  0.59245517     0.26300
C703        C  0.37158052  0.95776767  0.57693871    -0.11300
C704        C  0.38618386  0.93627489  0.56640407    -0.25400
C705        C  0.36780428  0.89824532  0.57270407     0.37300
C706        C  0.33480919  0.88212988  0.58803831    -0.27000
F707        F  0.32486648  0.96314540  0.60127954    -0.19100
H708        H  0.38520021  0.98710674  0.57275701     0.16600
F709        F  0.38092454  0.87626366  0.56344349    -0.22800
H710        H  0.32072087  0.85273278  0.59212570     0.18400
C711        C  0.05706738  0.64998821  0.60737834    -0.26900
C712        C  0.09234040  0.68027421  0.60087329     0.06700
C713        C  0.11058571  0.67798471  0.57697672     0.26300
C714        C  0.09434025  0.64604918  0.56041208    -0.11400
C715        C  0.05914051  0.61596506  0.56675497    -0.25300
C716        C  0.04041353  0.61815999  0.59035854     0.37100
C717        C  0.10996600  0.71478830  0.61812478     0.06700
F718        F  0.14370313  0.70716258  0.56904625    -0.19100
H719        H  0.10903248  0.64511415  0.54214999     0.16600
F720        F  0.00667659  0.58917111  0.59743175    -0.22800
H721        H  0.04255014  0.65084899  0.62575841     0.18300
C722        C  0.09015522  0.73248842  0.62551307     0.26300
C723        C  0.10891744  0.76809415  0.63723107    -0.11300
C724        C  0.14848075  0.78851923  0.64071686    -0.25400
C725        C  0.16692983  0.76771887  0.63666198     0.37300
C726        C  0.14798471  0.73195925  0.62533815    -0.27000
F727        F  0.05312404  0.71683743  0.61928664    -0.19100
H728        H  0.09224765  0.78072363  0.64012821     0.16600
F729        F  0.20352796  0.78151902  0.64349533    -0.22800
H730        H  0.16351580  0.71792175  0.62146771     0.18400
C731        C  0.06994021  0.89554049  0.58959407    -0.26900
C732        C  0.10911921  0.91308369  0.58993557     0.06700
C733        C  0.12983114  0.94707579  0.57629202     0.26300
C734        C  0.11138137  0.96275980  0.56218032    -0.11400
C735        C  0.07201027  0.94474761  0.56128785    -0.25300
C736        C  0.05149346  0.91113004  0.57558224     0.37100
C737        C  0.12745207  0.89429858  0.60333963     0.06700
F738        F  0.16773534  0.96426862  0.57554989    -0.19100
H739        H  0.12793526  0.98855008  0.55130774     0.16600
F740        F  0.01355383  0.89325608  0.57618827    -0.22800
H741        H  0.05353460  0.86945222  0.60015280     0.18300
C742        C  0.15506469  0.91141825  0.62407502     0.26300
C743        C  0.16993528  0.89173091  0.63727875    -0.11300
C744        C  0.15541068  0.85341540  0.63252010    -0.25400
C745        C  0.13319761  0.83951931  0.60756170     0.37300
C746        C  0.11788095  0.85878117  0.59450560    -0.27000
F747        F  0.16734988  0.94693644  0.63193741    -0.19100
H748        H  0.19310288  0.90717954  0.65126957     0.16600
F749        F  0.12919965  0.80964397  0.59341242    -0.22800
H750        H  0.09954267  0.84643173  0.57654048     0.18400
C751        C  0.42672252  0.85476519  0.89470321    -0.26900
C752        C  0.42801314  0.85339670  0.92387672     0.06700
C753        C  0.41033913  0.81882020  0.93697085     0.26300
C754        C  0.39279151  0.78623013  0.92099483    -0.11400
C755        C  0.39220027  0.78747714  0.89167089    -0.25300
C756        C  0.40901561  0.82233395  0.87870529     0.37100
C757        C  0.44724144  0.88829283  0.94029922     0.06700
F758        F  0.41084104  0.81655067  0.96516840    -0.19100
H759        H  0.37993318  0.75997445  0.93165245     0.16600
F760        F  0.40871470  0.82536646  0.85055873    -0.22800
H761        H  0.43934921  0.88116624  0.88423506     0.18300
C762        C  0.48348352  0.91584659  0.93386536     0.26300
C763        C  0.49996831  0.95018639  0.94731896    -0.11300
C764        C  0.48177424  0.95900062  0.96871881    -0.25400
C765        C  0.44395006  0.93028252  0.97375103     0.37300
C766        C  0.42794061  0.89571292  0.96049675    -0.27000
F767        F  0.50284366  0.91006525  0.91370955    -0.19100
H768        H  0.02645743  0.97000992  0.93875782     0.16600
F769        F  0.41974464  0.93600580  0.98827638    -0.22800
H770        H  0.39903170  0.87542177  0.96464136     0.18400
C771        C  0.14648590  0.57568872  0.89750063    -0.26900
C772        C  0.14845566  0.57649495  0.92670519     0.06700
C773        C  0.18371290  0.59243558  0.93999190     0.26300
C774        C  0.21637249  0.60802533  0.92415372    -0.11400
C775        C  0.21439312  0.60777222  0.89482611    -0.25300
C776        C  0.17885319  0.59119410  0.88168880     0.37100
C777        C  0.11330655  0.56021539  0.94272468     0.06700
F778        F  0.18659478  0.59363007  0.96822208    -0.19100
H779        H  0.24320805  0.62040250  0.93488321     0.16600
F780        F  0.17503438  0.58988802  0.85350460    -0.22800
H781        H  0.11959772  0.56275332  0.88679726     0.18300
C782        C  0.08561764  0.56870303  0.93592851     0.26300
C783        C  0.05053453  0.54966430  0.94807335    -0.11300
C784        C  0.04144946  0.52264521  0.96930429    -0.25400
C785        C  0.07004178  0.51345023  0.97463033     0.37300
C786        C  0.10524080  0.53261160  0.96220050    -0.27000
F787        F  0.09188987  0.59466227  0.91647470    -0.19100
H788        H  0.03041278  0.55551515  0.93865917     0.16600
F789        F  0.06333600  0.48290692  0.98849266    -0.22800
H790        H  0.12544754  0.52390665  0.96638299     0.18400
C791        C  0.42602366  0.57103656  0.89630606    -0.26900
C792        C  0.42306680  0.56990534  0.92538380     0.06700
C793        C  0.40595368  0.58751522  0.93846007     0.26300
C794        C  0.39144809  0.60548992  0.92249587    -0.11400
C795        C  0.39404146  0.60642105  0.89324391    -0.25300
C796        C  0.41184101  0.58911140  0.88032236     0.37100
C797        C  0.43920593  0.55131564  0.94173332     0.06700
F798        F  0.40262943  0.58665992  0.96659193    -0.19100
H799        H  0.37789833  0.61840540  0.93306357     0.16600
F800        F  0.41575043  0.58956081  0.85224551    -0.22800
H801        H  0.43978452  0.55815768  0.88594859     0.18300
C802        C  0.42897368  0.51475395  0.93595255     0.26300
C803        C  0.44794704  0.49886984  0.94860746    -0.11300
C804        C  0.47727969  0.51800173  0.96882327    -0.25400
C805        C  0.48775601  0.55601494  0.97326833     0.37300
C806        C  0.46841095  0.57160144  0.96055184    -0.27000
F807        F  0.40128838  0.49454569  0.91707751    -0.19100
H808        H  0.43937659  0.97182824  0.94077540     0.16600
F809        F  0.01982794  0.58044352  0.98623015    -0.22800
H810        H  0.47816821  0.60069697  0.96393966     0.18400
C811        C  0.17869436  0.74715588  0.71079079    -0.26900
C812        C  0.21711240  0.76491243  0.71649625     0.06700
C813        C  0.23960854  0.80166641  0.70812990     0.26300
C814        C  0.22345330  0.82098226  0.69652768    -0.11400
C815        C  0.18414402  0.80540792  0.69442705    -0.25300
C816        C  0.16238291  0.76653254  0.69954765     0.35600
C817        C  0.23321681  0.74579156  0.73251527     0.06700
F818        F  0.27707150  0.82013600  0.71320807    -0.19100
H819        H  0.24217240  0.84966781  0.69260446     0.16600
F820        F  0.12524674  0.74653344  0.69332755    -0.22800
H821        H  0.16101501  0.71807772  0.71538196     0.18300
C822        C  0.21626141  0.72689062  0.75721847     0.26300
C823        C  0.23307373  0.71138792  0.77338024    -0.11300
C824        C  0.26746678  0.71533420  0.76566648    -0.25400
C825        C  0.28415513  0.73355296  0.74082798     0.37300
C826        C  0.26684815  0.74817241  0.72421506    -0.27000
F827        F  0.18450889  0.72507332  0.76656175    -0.19100
H828        H  0.22002641  0.69765650  0.79260500     0.16600
F829        F  0.31702540  0.73695871  0.73255419    -0.22800
H830        H  0.28003397  0.76184844  0.70502574     0.18400
C831        C  0.05928659  0.79442126  0.69857264    -0.26900
C832        C  0.05499190  0.77824198  0.72470917     0.06700
C833        C  0.08637297  0.78139509  0.73842175     0.26300
C834        C  0.12079393  0.79829189  0.72536951    -0.11400
C835        C  0.12527083  0.81057953  0.69725260    -0.25300
C836        C  0.09407161  0.81174597  0.68549958     0.37100
C837        C  0.01833107  0.75948390  0.73842599     0.06700
F838        F  0.08402737  0.76901311  0.76487242    -0.19100
H839        H  0.14425281  0.80106255  0.73749356     0.16600
F840        F  0.09645214  0.83129243  0.66256220    -0.22800
H841        H  0.03570450  0.79432470  0.68842812     0.18300
C842        C  0.49851568  0.77798859  0.74336909     0.26300
C843        C  0.46540443  0.76077461  0.75847921    -0.11300
C844        C  0.45142743  0.72478991  0.76882449    -0.25400
C845        C  0.47098413  0.70601226  0.76313820     0.37300
C846        C  0.00409302  0.72333392  0.74812136    -0.27000
F847        F  0.51199629  0.81323720  0.73464484    -0.19100
H848        H  0.45101200  0.77591924  0.76242058     0.16600
F849        F  0.45881784  0.67129434  0.77259563    -0.22800
H850        H  0.01903080  0.70866546  0.74434891     0.18400
C851        C  0.22420921  0.91000571  0.73952679    -0.26900
C852        C  0.21387485  0.93586695  0.73212482     0.06700
C853        C  0.18505480  0.92564269  0.71247650     0.26300
C854        C  0.16938467  0.89133729  0.69892853    -0.11400
C855        C  0.18351920  0.86695103  0.70257504    -0.25300
C856        C  0.20774730  0.87536370  0.72645212     0.37100
C857        C  0.23231120  0.97258174  0.74601727     0.06700
F858        F  0.17223577  0.94891357  0.70602162    -0.19100
H859        H  0.14577483  0.88417386  0.68546884     0.16600
F860        F  0.21239577  0.84961510  0.74005614    -0.22800
H861        H  0.24374401  0.91593606  0.75668386     0.18300
C862        C  0.21149314  0.98557314  0.76009899     0.26300
C863        C  0.22942892  0.51993447  0.77382337    -0.11300
C864        C  0.26869667  0.54187402  0.77377259    -0.25400
C865        C  0.28943844  0.52865296  0.75965914     0.37300
C866        C  0.27115722  0.49431341  0.74610028    -0.27000
F867        F  0.17372725  0.96435947  0.76181289    -0.19100
H868        H  0.21274103  0.52905024  0.78484463     0.16600
F869        F  0.32735744  0.54882086  0.75879480    -0.22800
H870        H  0.28761942  0.48467971  0.73535920     0.18400
O871        O  0.76756036  0.16955301  0.79423470    -0.77200
C872        C  0.78775550  0.07765251  0.78903900     0.83900
O873        O  0.78077227  0.14041996  0.88987934    -0.78300
O874        O  0.87783350  0.12234764  0.84995464    -0.79800
O875        O  0.90291106  0.22727572  0.79341932    -0.79600
O876        O  0.82083343  0.22321311  0.79032667    -0.78200
Zn877      Zn  0.78001558  0.13807705  0.81875517     1.55700
O878        O  0.90279606  0.17407892  0.79308521    -0.79600
Cd879      Cd  0.85665053  0.21616797  0.81650073     1.59700
Cd880      Cd  0.83429997  0.16703331  0.87344431     1.59600
O881        O  0.87416035  0.25453868  0.84867123    -0.79600
O882        O  0.83160420  0.16499347  0.83158127    -1.90100
Cd883      Cd  0.85802508  0.13966055  0.81739137     1.59900
O884        O  0.86153103  0.22161890  0.88755901    -0.79600
O885        O  0.82267156  0.09309983  0.79434797    -0.78200
C886        C  0.74881430  0.12433313  0.87769585     0.84300
C887        C  0.78632214  0.20200684  0.78437543     0.84000
O888        O  0.76850430  0.09183922  0.79729523    -0.77200
C889        C  0.91701034  0.20771932  0.78589602     0.84800
O890        O  0.74581967  0.12231291  0.85124840    -0.77300
C891        C  0.87488541  0.25261893  0.87517556     0.84900
C892        C  0.87728701  0.12434225  0.87640285     0.85300
O893        O  0.86221813  0.14069243  0.88855477    -0.79700
C894        C  0.66576337  0.32957822  0.68529348    -0.01200
C895        C  0.50020163  0.99996311  0.98172057    -0.01200
O896        O  0.93123670  0.48614407  0.53953955    -0.77200
C897        C  0.54327930  0.08288543  0.54858031     0.83900
O898        O  0.97315867  0.02429850  0.44516983    -0.78300
O899        O  0.59116976  0.04734151  0.48181090    -0.79800
O900        O  0.51782211  0.43910828  0.53789707    -0.79600
O901        O  0.93497159  0.43503445  0.54163021    -0.78200
Zn902      Zn  0.97544389  0.02257992  0.51635682     1.55700
O903        O  0.57009821  0.49400245  0.53808573    -0.79600
Cd904      Cd  0.97926292  0.44728576  0.51576901     1.59700
Cd905      Cd  0.00102779  0.49802179  0.45994457     1.59600
O906        O  0.95832351  0.40994395  0.48290409    -0.79600
O907        O  0.00223255  0.49903297  0.50190155    -1.90100
Cd908      Cd  0.55572807  0.02727179  0.51516083     1.59900
O909        O  0.97374172  0.44403389  0.44446133    -0.79600
O910        O  0.56498670  0.07184865  0.53971103    -0.78200
C911        C  0.95737789  0.03973762  0.45758776     0.84300
C912        C  0.91917383  0.45333685  0.54830961     0.84000
O913        O  0.50865454  0.06642729  0.54178208    -0.77200
C914        C  0.55206324  0.46003994  0.54495760     0.84800
O915        O  0.95640828  0.04070469  0.48417572    -0.77300
C916        C  0.95842240  0.41268441  0.45643872     0.84900
C917        C  0.58715645  0.04430183  0.45540599     0.85300
O918        O  0.55490965  0.02587185  0.44382843    -0.79700
C919        C  0.83449772  0.16459781  0.35143274    -0.01200
C920        C  0.66985462  0.33115077  0.65014317    -0.01200
O921        O  0.73918582  0.39420211  0.13030228    -0.77200
C922        C  0.62689428  0.37923004  0.12363294     0.83900
O923        O  0.69312464  0.38518321  0.22503782    -0.78300
O924        O  0.57926082  0.28889634  0.18524424    -0.79800
O925        O  0.65576933  0.26062891  0.13054150    -0.79600
O926        O  0.73684923  0.34007556  0.12723951    -0.78200
Zn927      Zn  0.69499702  0.38465714  0.15396782     1.55700
O928        O  0.60422844  0.26474769  0.12742120    -0.79600
Cd929      Cd  0.69308379  0.30696500  0.15291439     1.59700
Cd930      Cd  0.66824109  0.33206295  0.20892489     1.59600
O931        O  0.71444743  0.29031504  0.18513655    -0.79600
O932        O  0.66849522  0.33405901  0.16712694    -1.90100
Cd933      Cd  0.61603855  0.30940426  0.15274641     1.59900
O934        O  0.69821773  0.30789446  0.22378622    -0.79600
O935        O  0.60561836  0.34566935  0.13062494    -0.78200
C936        C  0.71004834  0.41659536  0.21324338     0.84300
C937        C  0.75189394  0.37412894  0.12101178     0.84000
O938        O  0.66134810  0.39682325  0.13083882    -0.77200
C939        C  0.62238362  0.24844033  0.12172280     0.84800
O940        O  0.71305072  0.41944423  0.18682421    -0.77300
C941        C  0.71436164  0.29267944  0.21161717     0.84900
C942        C  0.58217732  0.28738643  0.21159324     0.85300
O943        O  0.61402897  0.30199390  0.22389679    -0.79700
C944        C  0.50038914  0.00075896  0.01746325    -0.01200
C945        C  0.83442576  0.16422869  0.31586604    -0.01200
C946        C  0.89523757  0.46820908  0.03641552    -0.26900
C947        C  0.88714147  0.44102409  0.05621727     0.06700
C948        C  0.91488767  0.43290939  0.06369290     0.26300
C949        C  0.94998842  0.45151052  0.05140411    -0.11400
C950        C  0.95913400  0.47831212  0.02998478    -0.25300
C951        C  0.93046784  0.48733037  0.02423464     0.37100
C952        C  0.85119064  0.42386856  0.07115064     0.06700
F953        F  0.90904576  0.40872712  0.08450825    -0.19100
H954        H  0.97012895  0.44569461  0.06085254     0.16600
F955        F  0.93723182  0.01790528  0.01027550    -0.22800
H956        H  0.87464372  0.47611614  0.03129900     0.18300
C957        C  0.83920888  0.44591391  0.08460912     0.26300
C958        C  0.80653278  0.42952433  0.10025360    -0.11300
C959        C  0.78524164  0.39087961  0.10292788    -0.25400
C960        C  0.79688680  0.36882763  0.08882373     0.37300
C961        C  0.82955550  0.38528805  0.07316194    -0.27000
F962        F  0.85996826  0.48337221  0.08367219    -0.19100
H963        H  0.79844474  0.44725004  0.11087402     0.16600
F964        F  0.77692283  0.33136746  0.09015860    -0.22800
H965        H  0.83819508  0.36786927  0.06271882     0.18400
C966        C  0.55541408  0.17153106  0.07266516    -0.26900
C967        C  0.57040670  0.14802034  0.07318879     0.06700
C968        C  0.60218877  0.15748761  0.08979028     0.26300
C969        C  0.61900587  0.19029595  0.10528663    -0.11400
C970        C  0.60425264  0.21410166  0.10475917    -0.25300
C971        C  0.57210437  0.20433938  0.08830111     0.37100
C972        C  0.55206929  0.11289762  0.05730848     0.06700
F973        F  0.61623542  0.13439523  0.09172090    -0.19100
H974        H  0.64329736  0.19674195  0.11810666     0.16600
F975        F  0.55704239  0.22659854  0.08697303    -0.22800
H976        H  0.53080114  0.16446473  0.06003307     0.18300
C977        C  0.51533123  0.08609777  0.06289114     0.26300
C978        C  0.49944756  0.05128966  0.05036130    -0.11300
C979        C  0.51841783  0.04175462  0.03007330    -0.25400
C980        C  0.55662474  0.06983712  0.02576452     0.37300
C981        C  0.57246281  0.10455017  0.03871689    -0.27000
F982        F  0.49550883  0.09253280  0.08226620    -0.19100
H983        H  0.97285704  0.03177967  0.05891159     0.16600
F984        F  0.58092392  0.06323994  0.01214933    -0.22800
H985        H  0.60161035  0.12459473  0.03511127     0.18400
C986        C  0.53343633  0.43041443  0.03933607    -0.26900
C987        C  0.56184739  0.45050981  0.05890789     0.06700
C988        C  0.57107368  0.48679520  0.06493841     0.26300
C989        C  0.55188879  0.50230330  0.05192496    -0.11400
C990        C  0.52357945  0.48332825  0.03093933    -0.25300
C991        C  0.51387971  0.44564065  0.02639112     0.37100
C992        C  0.57882565  0.43224193  0.07508504     0.06700
F993        F  0.59683742  0.50662962  0.08511504    -0.19100
H994        H  0.55778758  0.02835274  0.06098507     0.16600
F995        F  0.48262076  0.42119702  0.01259558    -0.22800
H996        H  0.52488758  0.40180461  0.03495445     0.18300
C997        C  0.55600622  0.39770445  0.08751468     0.26300
C998        C  0.57191691  0.38077372  0.10301840    -0.11300
C999        C  0.61090157  0.39797574  0.10689793    -0.25400
C1000       C  0.63377624  0.43285703  0.09476849     0.37300
C1001       C  0.61779916  0.44960284  0.07892767    -0.27000
F1002       F  0.51814515  0.38076063  0.08547030    -0.19100
H1003       H  0.55347166  0.35424829  0.11235379     0.16600
F1004       F  0.67156063  0.45076065  0.09794284    -0.22800
H1005       H  0.63595210  0.47616148  0.06951796     0.18400
C1006       C  0.75507745  0.26572391  0.27276793    -0.26900
C1007       C  0.76965501  0.24613531  0.25909166     0.06700
C1008       C  0.76566441  0.24170960  0.23000474     0.26300
C1009       C  0.74793978  0.25711993  0.21488412    -0.11400
C1010       C  0.73344671  0.27702543  0.22838212    -0.25300
C1011       C  0.73721926  0.28118050  0.25764070     0.37100
C1012       C  0.78735123  0.22872055  0.27519997     0.06700
F1013       F  0.77777942  0.22136116  0.21626913    -0.19100
H1014       H  0.74516991  0.25296519  0.19250532     0.16600
F1015       F  0.72376774  0.30011387  0.27171917    -0.22800
H1016       H  0.75764019  0.26910678  0.29521933     0.18300
C1017       C  0.82272547  0.23488216  0.26845845     0.26300
C1018       C  0.83725761  0.21495720  0.28149387    -0.11300
C1019       C  0.81730414  0.18755843  0.30219797    -0.25400
C1020       C  0.78101327  0.18217722  0.30837045     0.37300
C1021       C  0.76719879  0.20300050  0.29563966    -0.27000
F1022       F  0.84330282  0.26001674  0.24877480    -0.19100
H1023       H  0.86426414  0.22140397  0.27398663     0.16600
F1024       F  0.75519483  0.15282708  0.32249100    -0.22800
H1025       H  0.73901875  0.19677683  0.30023713     0.18400
C1026       C  0.74345919  0.48288888  0.27529498    -0.26900
C1027       C  0.75792045  0.01725316  0.26173678     0.06700
C1028       C  0.75704064  0.01825267  0.23250119     0.26300
C1029       C  0.74107165  0.48521840  0.21713856    -0.11400
C1030       C  0.72646056  0.45084607  0.23038979    -0.25300
C1031       C  0.72781908  0.44998976  0.25976689     0.37100
C1032       C  0.77401291  0.05188109  0.27812088     0.06700
F1033       F  0.77167732  0.05096473  0.21892338    -0.19100
H1034       H  0.74061198  0.48693232  0.19463389     0.16600
F1035       F  0.71426444  0.41755875  0.27356293    -0.22800
H1036       H  0.74427806  0.48180733  0.29782952     0.18300
C1037       C  0.76049136  0.07611693  0.27446455     0.26300
C1038       C  0.77877438  0.11099796  0.28691123    -0.11300
C1039       C  0.81092356  0.12315804  0.30456956    -0.25400
C1040       C  0.82398891  0.09748027  0.30784095     0.37300
C1041       C  0.80528460  0.06243876  0.29526881    -0.27000
F1042       F  0.73022438  0.06663236  0.25772396    -0.19100
H1043       H  0.76803541  0.12838491  0.28042750     0.16600
F1044       F  0.85761470  0.10745250  0.31961676    -0.22800
H1045       H  0.81688978  0.04439999  0.29738647     0.18400
C1046       C  0.91536230  0.18124270  0.26453549    -0.26900
C1047       C  0.94596582  0.21327030  0.27530969     0.06700
C1048       C  0.94077598  0.23015301  0.29860197     0.26300
C1049       C  0.90572914  0.21460174  0.31109790    -0.11400
C1050       C  0.87485012  0.18002560  0.30264685    -0.25300
C1051       C  0.88033004  0.16593250  0.27680419     0.37100
C1052       C  0.98123498  0.23171764  0.25949790     0.06700
F1053       F  0.96898244  0.26305677  0.30833977    -0.19100
H1054       H  0.90391528  0.23080500  0.32754040     0.16600
F1055       F  0.85163406  0.14019131  0.26091603    -0.22800
H1056       H  0.91800446  0.16911461  0.24531106     0.18300
C1057       C  0.51619269  0.24329190  0.27230129     0.26300
C1058       C  0.54900072  0.26140792  0.25671573    -0.11300
C1059       C  0.54744066  0.26808389  0.22811311    -0.25400
C1060       C  0.51218123  0.25595415  0.21541180     0.37300
C1061       C  0.47967636  0.23815192  0.23099951    -0.27000
F1062       F  0.51853830  0.23646350  0.29966726    -0.19100
H1063       H  0.57559724  0.27000574  0.26702256     0.16600
F1064       F  0.50882542  0.26160016  0.18794787    -0.22800
H1065       H  0.95306134  0.22976232  0.22077630     0.18400
C1066       C  0.72913406  0.09386212  0.37082052    -0.26900
C1067       C  0.72029448  0.11522699  0.38797350     0.06700
C1068       C  0.74641306  0.15276864  0.39134930     0.26300
C1069       C  0.78148424  0.16813313  0.37913924    -0.11400
C1070       C  0.79282550  0.14684583  0.36286728    -0.25300
C1071       C  0.76421264  0.10886975  0.35843665     0.37100
C1072       C  0.68562374  0.09757255  0.40458929     0.06700
F1073       F  0.73823261  0.17486464  0.40693382    -0.19100
H1074       H  0.79921796  0.19719842  0.38333665     0.16600
F1075       F  0.77067757  0.08390198  0.34566550    -0.22800
H1076       H  0.70957229  0.06451140  0.36838297     0.18300
C1077       C  0.65048234  0.07328160  0.39241492     0.26300
C1078       C  0.61850795  0.05616630  0.40894312    -0.11300
C1079       C  0.62102836  0.06279103  0.43789058    -0.25400
C1080       C  0.65637445  0.08719873  0.44991740     0.37300
C1081       C  0.68811659  0.10413409  0.43342350    -0.27000
F1082       F  0.64697793  0.06648856  0.36454617    -0.19100
H1083       H  0.59178919  0.03757626  0.39905839     0.16600
F1084       F  0.66056312  0.09496516  0.47765211    -0.22800
H1085       H  0.71498026  0.12213274  0.44336339     0.18400
C1086       C  0.88851982  0.24419078  0.40673802    -0.26900
C1087       C  0.89038109  0.27498387  0.39399128     0.06700
C1088       C  0.87439893  0.27070286  0.36750643     0.26300
C1089       C  0.85739228  0.23635808  0.35396995    -0.11400
C1090       C  0.85705995  0.20475292  0.36535905    -0.25300
C1091       C  0.87110820  0.20966509  0.39347058     0.37100
C1092       C  0.90668902  0.31072837  0.40929845     0.06700
F1093       F  0.87326599  0.29933921  0.35523271    -0.19100
H1094       H  0.84405623  0.23589224  0.33465784     0.16600
F1095       F  0.86591107  0.18095154  0.40959653    -0.22800
H1096       H  0.89952105  0.24652741  0.42772943     0.18300
C1097       C  0.89518132  0.31215559  0.43649944     0.26300
C1098       C  0.91188273  0.34546559  0.45142108    -0.11300
C1099       C  0.94004828  0.37820723  0.43948217    -0.25400
C1100       C  0.95069970  0.37706874  0.41186479     0.37300
C1101       C  0.93420530  0.34352969  0.39701005    -0.27000
F1102       F  0.86738480  0.28137697  0.44854810    -0.19100
H1103       H  0.90262279  0.34563705  0.47242212     0.16600
F1104       F  0.97794577  0.40795959  0.39956285    -0.22800
H1105       H  0.94350439  0.34299947  0.37608313     0.18400
C1106       C  0.90884488  0.13666976  0.37574596    -0.26900
C1107       C  0.88752874  0.10482581  0.39117523     0.06700
C1108       C  0.84954780  0.09208916  0.39420607     0.26300
C1109       C  0.83314419  0.11074150  0.38182582    -0.11400
C1110       C  0.85315052  0.14221009  0.36431902    -0.25300
C1111       C  0.89263894  0.15586150  0.36363205     0.37100
C1112       C  0.90590164  0.08851505  0.40779618     0.06700
F1113       F  0.82848241  0.06258147  0.41066172    -0.19100
H1114       H  0.80544669  0.10140247  0.38902508     0.16600
F1115       F  0.91724210  0.19069526  0.35625995    -0.22800
H1116       H  0.93894016  0.14862616  0.37511812     0.18300
C1117       C  0.92103257  0.06886697  0.39503570     0.26300
C1118       C  0.93770444  0.05312716  0.41129447    -0.11300
C1119       C  0.93980367  0.05690506  0.44058987    -0.25400
C1120       C  0.92499118  0.07721804  0.45317991     0.37300
C1121       C  0.90811741  0.09262307  0.43688666    -0.27000
F1122       F  0.91898669  0.06429699  0.36693182    -0.19100
H1123       H  0.94879266  0.03776570  0.40088682     0.16600
F1124       F  0.92692967  0.08252983  0.48120111    -0.22800
H1125       H  0.89683902  0.10802968  0.44699591     0.18400
C1126       C  0.77775484  0.39888105  0.63696363    -0.26900
C1127       C  0.78253616  0.38523001  0.61171115     0.06700
C1128       C  0.75127290  0.35579548  0.59876640     0.26300
C1129       C  0.71636360  0.33988313  0.61132518    -0.11400
C1130       C  0.71117205  0.35017893  0.63853136    -0.25300
C1131       C  0.74274746  0.38282800  0.64966338     0.37100
C1132       C  0.81933676  0.40331269  0.59778264     0.06700
F1133       F  0.75402769  0.34335953  0.57323910    -0.19100
H1134       H  0.69310650  0.31887081  0.59930989     0.16600
F1135       F  0.74103677  0.40107232  0.67222201    -0.22800
H1136       H  0.80123331  0.42277605  0.64675264     0.18300
C1137       C  0.83856244  0.44152696  0.59267752     0.26300
C1138       C  0.87131358  0.45761289  0.57708850    -0.11300
C1139       C  0.88579355  0.43607541  0.56643034    -0.25400
C1140       C  0.86735879  0.39802810  0.57268212     0.37300
C1141       C  0.83442671  0.38194727  0.58809048    -0.27000
F1142       F  0.82478772  0.46308152  0.60162248    -0.19100
H1143       H  0.88498865  0.48696682  0.57295540     0.16600
F1144       F  0.88036050  0.37599732  0.56330457    -0.22800
H1145       H  0.82029599  0.35253803  0.59213669     0.18400
C1146       C  0.55661021  0.15031740  0.60702497    -0.26900
C1147       C  0.59226698  0.18033665  0.60099745     0.06700
C1148       C  0.61101441  0.17784175  0.57747896     0.26300
C1149       C  0.59488234  0.14596410  0.56085629    -0.11400
C1150       C  0.55929840  0.11616231  0.56672029    -0.25300
C1151       C  0.54005884  0.11859312  0.58990568     0.37100
C1152       C  0.60976759  0.21480256  0.61831842     0.06700
F1153       F  0.64453266  0.20677236  0.56994025    -0.19100
H1154       H  0.60997861  0.14487732  0.54290460     0.16600
F1155       F  0.50587079  0.08992710  0.59648520    -0.22800
H1156       H  0.54168526  0.15128965  0.62511131     0.18300
C1157       C  0.58994316  0.23254376  0.62558224     0.26300
C1158       C  0.60866299  0.26812249  0.63733458    -0.11300
C1159       C  0.64820971  0.28852122  0.64090583    -0.25400
C1160       C  0.66665048  0.26769439  0.63698630     0.37300
C1161       C  0.64772112  0.23190648  0.62573365    -0.27000
F1162       F  0.55296723  0.21699406  0.61919476    -0.19100
H1163       H  0.59199723  0.28077556  0.64014507     0.16600
F1164       F  0.70323579  0.28150481  0.64386553    -0.22800
H1165       H  0.66324608  0.21782296  0.62203750     0.18400
C1166       C  0.56946807  0.39526168  0.58971437    -0.26900
C1167       C  0.60864598  0.41277391  0.58994246     0.06700
C1168       C  0.62931624  0.44664718  0.57614932     0.26300
C1169       C  0.61083095  0.46228077  0.56203368    -0.11400
C1170       C  0.57146260  0.44432712  0.56128076    -0.25300
C1171       C  0.55098052  0.41080082  0.57568762     0.37100
C1172       C  0.62703633  0.39407901  0.60337709     0.06700
F1173       F  0.66720906  0.46376850  0.57527839    -0.19100
H1174       H  0.62735161  0.48798897  0.55105440     0.16600
F1175       F  0.51304812  0.39299115  0.57640161    -0.22800
H1176       H  0.55310257  0.36924847  0.60037656     0.18300
C1177       C  0.65463820  0.41128117  0.62410985     0.26300
C1178       C  0.66958970  0.39168112  0.63733883    -0.11300
C1179       C  0.65514732  0.35337862  0.63259709    -0.25400
C1180       C  0.63298656  0.33943444  0.60761810     0.37300
C1181       C  0.61757873  0.35859787  0.59454680    -0.27000
F1182       F  0.66683291  0.44679388  0.63193688    -0.19100
H1183       H  0.69274045  0.40717470  0.65133553     0.16600
F1184       F  0.62909676  0.30959230  0.59348359    -0.22800
H1185       H  0.59926357  0.34620668  0.57657583     0.18400
C1186       C  0.92692919  0.35468828  0.89508814    -0.26900
C1187       C  0.92796899  0.35327977  0.92426724     0.06700
C1188       C  0.91001374  0.31867982  0.93733122     0.26300
C1189       C  0.89249618  0.28610782  0.92131505    -0.11400
C1190       C  0.89218890  0.28740492  0.89198389    -0.25300
C1191       C  0.90924548  0.32229139  0.87905637     0.37100
C1192       C  0.94722900  0.38818284  0.94069388     0.06700
F1193       F  0.91019524  0.31636454  0.96553614    -0.19100
H1194       H  0.87942267  0.25982898  0.93194459     0.16600
F1195       F  0.90920411  0.32539177  0.85090749    -0.22800
H1196       H  0.93973994  0.38110420  0.88463409     0.18300
C1197       C  0.98353386  0.41566149  0.93430708     0.26300
C1198       C  0.00000761  0.45008524  0.94763772    -0.11300
C1199       C  0.98178109  0.45902922  0.96891775    -0.25400
C1200       C  0.94388861  0.43041988  0.97386925     0.37300
C1201       C  0.92786761  0.39577136  0.96073200    -0.27000
F1202       F  0.00294893  0.40974190  0.91427809    -0.19100
H1203       H  0.52649859  0.46987393  0.93906060     0.16600
F1204       F  0.91965838  0.43633591  0.98817690    -0.22800
H1205       H  0.89890772  0.37556992  0.96480700     0.18400
C1206       C  0.64624110  0.07516135  0.89692112    -0.26900
C1207       C  0.64812911  0.07610807  0.92613006     0.06700
C1208       C  0.68335034  0.09222648  0.93948519     0.26300
C1209       C  0.71605286  0.10785910  0.92371851    -0.11400
C1210       C  0.71416341  0.10749213  0.89439320    -0.25300
C1211       C  0.67866753  0.09073635  0.88117373     0.37100
C1212       C  0.61296907  0.05981166  0.94212357     0.06700
F1213       F  0.68615652  0.09355873  0.96771925    -0.19100
H1214       H  0.74285451  0.12037594  0.93450580     0.16600
F1215       F  0.67495361  0.08932737  0.85297890    -0.22800
H1216       H  0.61938532  0.06207163  0.88616821     0.18300
C1217       C  0.58511555  0.06801249  0.93518827     0.26300
C1218       C  0.55017192  0.04913916  0.94755635    -0.11300
C1219       C  0.54138884  0.02256713  0.96910220    -0.25400
C1220       C  0.57007001  0.01351110  0.97445036     0.37300
C1221       C  0.60515327  0.03256112  0.96185956    -0.27000
F1222       F  0.59108720  0.09352977  0.91542385    -0.19100
H1223       H  0.52987161  0.05468984  0.93806810     0.16600
F1224       F  0.56357651  0.98319246  0.98852164    -0.22800
H1225       H  0.62546625  0.02401939  0.96613902     0.18400
C1226       C  0.92531435  0.07042624  0.89634349    -0.26900
C1227       C  0.92326706  0.07017395  0.92547253     0.06700
C1228       C  0.90697178  0.08857447  0.93855767     0.26300
C1229       C  0.89236757  0.10644437  0.92256924    -0.11400
C1230       C  0.89404185  0.10648426  0.89327514    -0.25300
C1231       C  0.91100728  0.08836489  0.88033178     0.37100
C1232       C  0.93937569  0.05154255  0.94183091     0.06700
F1233       F  0.90451169  0.08857962  0.96673690    -0.19100
H1234       H  0.87948500  0.12000502  0.93316004     0.16600
F1235       F  0.91389686  0.08780216  0.85219839    -0.22800
H1236       H  0.93842432  0.05692215  0.88595081     0.18300
C1237       C  0.92873314  0.01481923  0.93627440     0.26300
C1238       C  0.94762127  0.99881880  0.94887823    -0.11300
C1239       C  0.97728136  0.01799603  0.96883871    -0.25400
C1240       C  0.98807813  0.05611284  0.97315223     0.37300
C1241       C  0.96884964  0.07183857  0.96045293    -0.27000
F1242       F  0.90070278  0.99453405  0.91765999    -0.19100
H1243       H  0.94006619  0.47202413  0.94036244     0.16600
F1244       F  0.52038401  0.08046700  0.98589097    -0.22800
H1245       H  0.97889601  0.10101774  0.96368632     0.18400
C1246       C  0.67830991  0.24719736  0.71106620    -0.26900
C1247       C  0.71673983  0.26496613  0.71676359     0.06700
C1248       C  0.73921149  0.30172092  0.70836832     0.26300
C1249       C  0.72304723  0.32099402  0.69672526    -0.11400
C1250       C  0.68374621  0.30541833  0.69462794    -0.25300
C1251       C  0.66198099  0.26655876  0.69981251     0.35600
C1252       C  0.73291904  0.24586410  0.73274580     0.06700
F1253       F  0.77667357  0.32025908  0.71344399    -0.19100
H1254       H  0.74175890  0.34967159  0.69277254     0.16600
F1255       F  0.62484307  0.24654823  0.69359499    -0.22800
H1256       H  0.66063526  0.21811416  0.71563898     0.18300
C1257       C  0.71580179  0.22654402  0.75728235     0.26300
C1258       C  0.73274373  0.21115973  0.77343730    -0.11300
C1259       C  0.76742854  0.21566519  0.76591063    -0.25400
C1260       C  0.78428858  0.23431018  0.74124991     0.37300
C1261       C  0.76683271  0.24873863  0.72460781    -0.27000
F1262       F  0.68374281  0.22417785  0.76648810    -0.19100
H1263       H  0.71954057  0.19706571  0.79251814     0.16600
F1264       F  0.81747284  0.23830661  0.73316362    -0.22800
H1265       H  0.78014306  0.26266830  0.70552399     0.18400
C1266       C  0.55887665  0.29433921  0.69837103    -0.26900
C1267       C  0.55446895  0.27809910  0.72448744     0.06700
C1268       C  0.58580336  0.28133807  0.73833573     0.26300
C1269       C  0.62030586  0.29835488  0.72541406    -0.11400
C1270       C  0.62490116  0.31065376  0.69730068    -0.25300
C1271       C  0.59374605  0.31180267  0.68544277     0.37100
C1272       C  0.51775709  0.25929005  0.73809004     0.06700
F1273       F  0.58332267  0.26890766  0.76478458    -0.19100
H1274       H  0.64371878  0.30115875  0.73761836     0.16600
F1275       F  0.59622498  0.33144514  0.66254433    -0.22800
H1276       H  0.53532317  0.29420117  0.68813924     0.18300
C1277       C  0.99788329  0.27775636  0.74293309     0.26300
C1278       C  0.96483557  0.26059620  0.75810526    -0.11300
C1279       C  0.95100048  0.22471313  0.76860636    -0.25400
C1280       C  0.97055934  0.20592942  0.76295484     0.37300
C1281       C  0.50359769  0.22319412  0.74787067    -0.27000
F1282       F  0.01127708  0.31294115  0.73408681    -0.19100
H1283       H  0.95040629  0.27571677  0.76199765     0.16600
F1284       F  0.95849915  0.17128995  0.77254688    -0.22800
H1285       H  0.51858039  0.20855607  0.74415799     0.18400
C1286       C  0.72380240  0.40990562  0.73974780    -0.26900
C1287       C  0.71356247  0.43582252  0.73232320     0.06700
C1288       C  0.68483248  0.42570205  0.71261424     0.26300
C1289       C  0.66914151  0.39141517  0.69903780    -0.11400
C1290       C  0.68319083  0.36696642  0.70271886    -0.25300
C1291       C  0.70732817  0.37529287  0.72664439     0.37100
C1292       C  0.73201491  0.47249512  0.74625179     0.06700
F1293       F  0.67212097  0.44905373  0.70613871    -0.19100
H1294       H  0.64556600  0.38429843  0.68555151     0.16600
F1295       F  0.71186182  0.34948712  0.74027089    -0.22800
H1296       H  0.74326680  0.41576986  0.75694420     0.18300
C1297       C  0.71121819  0.48548007  0.76036672     0.26300
C1298       C  0.72967465  0.02004806  0.77352883    -0.11300
C1299       C  0.76893851  0.04201224  0.77349849    -0.25400
C1300       C  0.78970860  0.02881268  0.75939741     0.37300
C1301       C  0.77145511  0.99444813  0.74585815    -0.27000
F1302       F  0.67344853  0.46428520  0.76206928    -0.19100
H1303       H  0.71296446  0.02914887  0.78453571     0.16600
F1304       F  0.82762554  0.04902561  0.75852975    -0.22800
H1305       H  0.78794078  0.98482996  0.73513245     0.18400
O1306       O  0.76748361  0.66940815  0.79430599    -0.77200
C1307       C  0.78756440  0.57753976  0.78926620     0.83900
O1308       O  0.78099893  0.64055950  0.89011056    -0.78300
O1309       O  0.87776922  0.62221324  0.84992729    -0.79800
O1310       O  0.90313153  0.72721218  0.79346749    -0.79600
O1311       O  0.82090467  0.72284141  0.78998175    -0.78200
Zn1312     Zn  0.77993877  0.63802412  0.81896819     1.55700
O1313       O  0.90298001  0.67400718  0.79309544    -0.79600
Cd1314     Cd  0.85667613  0.71601108  0.81635177     1.59700
Cd1315     Cd  0.83442668  0.66707284  0.87344835     1.59600
O1316       O  0.87400726  0.75448516  0.84842070    -0.79600
O1317       O  0.83162157  0.66492540  0.83159166    -1.90100
Cd1318     Cd  0.85804885  0.63961340  0.81736432     1.59900
O1319       O  0.86172273  0.72171425  0.88736850    -0.79600
O1320       O  0.82253638  0.59307669  0.79438172    -0.78200
C1321       C  0.74897663  0.62452006  0.87802496     0.84300
C1322       C  0.78633155  0.70170933  0.78419191     0.84000
O1323       O  0.76831735  0.59167317  0.79764748    -0.77200
C1324       C  0.91728234  0.70768949  0.78597960     0.84800
O1325       O  0.74586211  0.62246236  0.85157946    -0.77300
C1326       C  0.87489555  0.75265560  0.87492355     0.84900
C1327       C  0.87732601  0.62430835  0.87637454     0.85300
O1328       O  0.86237213  0.64076387  0.88853216    -0.79700
C1329       C  0.66610575  0.82954723  0.68515907    -0.01200
C1330       C  0.50020532  0.50003346  0.98182866    -0.01200
O1331       O  0.93163179  0.98634235  0.53953659    -0.77200
C1332       C  0.54302520  0.58264395  0.54866574     0.83900
O1333       O  0.97318688  0.52435755  0.44515388    -0.78300
O1334       O  0.59093564  0.54688441  0.48197920    -0.79800
O1335       O  0.51836424  0.93951143  0.53790533    -0.79600
O1336       O  0.93541372  0.93526132  0.54164544    -0.78200
Zn1337     Zn  0.97512110  0.52241811  0.51638365     1.55700
O1338       O  0.57064672  0.99439837  0.53799004    -0.79600
Cd1339     Cd  0.97970308  0.94751476  0.51576297     1.59700
Cd1340     Cd  0.00117588  0.99809562  0.45989400     1.59600
O1341       O  0.95875963  0.91007147  0.48293252    -0.79600
O1342       O  0.00257151  0.99922651  0.50185313    -1.90100
Cd1343     Cd  0.55535624  0.52696335  0.51525237     1.59900
O1344       O  0.97385854  0.94404509  0.44445233    -0.79600
O1345       O  0.56469404  0.57157172  0.53977916    -0.78200
C1346       C  0.95731358  0.53973331  0.45752912     0.84300
C1347       C  0.91959265  0.95354762  0.54831487     0.84000
O1348       O  0.50839010  0.56623229  0.54188285    -0.77200
C1349       C  0.55261934  0.96045463  0.54492728     0.84800
O1350       O  0.95619141  0.54060454  0.48411953    -0.77300
C1351       C  0.95866274  0.91271345  0.45646082     0.84900
C1352       C  0.58700802  0.54385021  0.45557182     0.85300
O1353       O  0.55478126  0.52559511  0.44394690    -0.79700
C1354       C  0.83425341  0.66440085  0.35136344    -0.01200
C1355       C  0.67013358  0.83114440  0.64999962    -0.01200
O1356       O  0.73922187  0.89440700  0.13015438    -0.77200
C1357       C  0.62688864  0.87933522  0.12370278     0.83900
O1358       O  0.69338274  0.88549318  0.22492586    -0.78300
O1359       O  0.57925141  0.78912271  0.18527691    -0.79800
O1360       O  0.65587253  0.76090299  0.13043914    -0.79600
O1361       O  0.73690863  0.84029303  0.12711649    -0.78200
Zn1362     Zn  0.69507702  0.88483926  0.15389642     1.55700
O1363       O  0.60423610  0.76486235  0.12749392    -0.79600
Cd1364     Cd  0.69315717  0.80722321  0.15282331     1.59700
Cd1365     Cd  0.66825491  0.83231866  0.20888619     1.59600
O1366       O  0.71447890  0.79056958  0.18504898    -0.79600
O1367       O  0.66853895  0.83426022  0.16709095    -1.90100
Cd1368     Cd  0.61605212  0.80953280  0.15278247     1.59900
O1369       O  0.69804436  0.80794071  0.22370858    -0.79600
O1370       O  0.60563273  0.84575994  0.13065945    -0.78200
C1371       C  0.71033172  0.91689009  0.21310864     0.84300
C1372       C  0.75192961  0.87433516  0.12086477     0.84000
O1373       O  0.66134637  0.89694153  0.13088549    -0.77200
C1374       C  0.62244192  0.74863809  0.12170097     0.84800
O1375       O  0.71326614  0.91970292  0.18668768    -0.77300
C1376       C  0.71424771  0.79278857  0.21153222     0.84900
C1377       C  0.58216373  0.78780297  0.21164096     0.85300
O1378       O  0.61402726  0.80249383  0.22393716    -0.79700
C1379       C  0.50037899  0.50085288  0.01756354    -0.01200
C1380       C  0.83417650  0.66412278  0.31579405    -0.01200
C1381       C  0.89535931  0.96837236  0.03640217    -0.26900
C1382       C  0.88711848  0.94096010  0.05602926     0.06700
C1383       C  0.91465837  0.93246136  0.06326480     0.26300
C1384       C  0.94977592  0.95103183  0.05099937    -0.11400
C1385       C  0.95912418  0.97818987  0.02982988    -0.25300
C1386       C  0.93056553  0.98738923  0.02417241     0.37100
C1387       C  0.85123130  0.92392720  0.07102815     0.06700
F1388       F  0.90860288  0.90790536  0.08383505    -0.19100
H1389       H  0.96974357  0.94486078  0.06028399     0.16600
F1390       F  0.93696344  0.51767896  0.01018901    -0.22800
H1391       H  0.87490406  0.97652744  0.03147333     0.18300
C1392       C  0.83977949  0.94606960  0.08499358     0.26300
C1393       C  0.80708661  0.92974787  0.10062324    -0.11300
C1394       C  0.78526962  0.89107344  0.10277915    -0.25400
C1395       C  0.79640591  0.86894786  0.08818717     0.37300
C1396       C  0.82909889  0.88534148  0.07254833    -0.27000
F1397       F  0.86106394  0.98351442  0.08454349    -0.19100
H1398       H  0.79940082  0.94751736  0.11164737     0.16600
F1399       F  0.77587562  0.83147728  0.08898680    -0.22800
H1400       H  0.83734911  0.86786694  0.06171816     0.18400
C1401       C  0.55505069  0.67139389  0.07305418    -0.26900
C1402       C  0.57045989  0.64823368  0.07313431     0.06700
C1403       C  0.60272111  0.65809582  0.08926684     0.26300
C1404       C  0.61953914  0.69090207  0.10476079    -0.11400
C1405       C  0.60432528  0.71432078  0.10470925    -0.25300
C1406       C  0.57173457  0.70418770  0.08869966     0.37100
C1407       C  0.55208448  0.61307003  0.05728990     0.06700
F1408       F  0.61725187  0.63538071  0.09076912    -0.19100
H1409       H  0.64420144  0.69763723  0.11721416     0.16600
F1410       F  0.55618800  0.72604453  0.08784084    -0.22800
H1411       H  0.53009683  0.66405797  0.06077049     0.18300
C1412       C  0.51535091  0.58625827  0.06290550     0.26300
C1413       C  0.49945533  0.55143556  0.05039674    -0.11300
C1414       C  0.51844713  0.54185157  0.03016503    -0.25400
C1415       C  0.55662153  0.56997446  0.02577743     0.37300
C1416       C  0.57243368  0.60472018  0.03865773    -0.27000
F1417       F  0.49552786  0.59269933  0.08227612    -0.19100
H1418       H  0.97281844  0.53196482  0.05890261     0.16600
F1419       F  0.58095417  0.56341311  0.01217644    -0.22800
H1420       H  0.60154908  0.62479167  0.03496749     0.18400
C1421       C  0.53377912  0.93059022  0.03928859    -0.26900
C1422       C  0.56180304  0.95060982  0.05913193     0.06700
C1423       C  0.57065726  0.98673507  0.06534377     0.26300
C1424       C  0.55152124  0.00218906  0.05218786    -0.11400
C1425       C  0.52360403  0.98330441  0.03092373    -0.25300
C1426       C  0.51422562  0.94573376  0.02623228     0.37100
C1427       C  0.57877880  0.93239108  0.07533678     0.06700
F1428       F  0.59598133  0.00642837  0.08580741    -0.19100
H1429       H  0.55846845  0.52860109  0.06062651     0.16600
F1430       F  0.48332461  0.92129865  0.01208676    -0.22800
H1431       H  0.52552605  0.90208671  0.03476189     0.18300
C1432       C  0.55598346  0.89767508  0.08751393     0.26300
C1433       C  0.57190710  0.88072886  0.10297088    -0.11300
C1434       C  0.61087212  0.89809555  0.10704083    -0.25400
C1435       C  0.63371038  0.93316972  0.09518522     0.37300
C1436       C  0.61772262  0.94993669  0.07939822    -0.27000
F1437       F  0.51812868  0.88055209  0.08524569    -0.19100
H1438       H  0.55348685  0.85405112  0.11210293     0.16600
F1439       F  0.67146998  0.95124972  0.09857993    -0.22800
H1440       H  0.63584329  0.97664566  0.07018764     0.18400
C1441       C  0.75395687  0.76482117  0.27272691    -0.26900
C1442       C  0.76918683  0.74586455  0.25899104     0.06700
C1443       C  0.76595420  0.74219774  0.22983166     0.26300
C1444       C  0.74836847  0.75775533  0.21472305    -0.11400
C1445       C  0.73322636  0.77702420  0.22829147    -0.25300
C1446       C  0.73620937  0.78039511  0.25761019     0.37100
C1447       C  0.78686722  0.72840789  0.27508738     0.06700
F1448       F  0.77867195  0.72244141  0.21598173    -0.19100
H1449       H  0.74622104  0.75421005  0.19228656     0.16600
F1450       F  0.72204972  0.79863428  0.27176441    -0.22800
H1451       H  0.75592853  0.76762902  0.29522293     0.18300
C1452       C  0.82233951  0.73475478  0.26845559     0.26300
C1453       C  0.83690327  0.71485474  0.28147219    -0.11300
C1454       C  0.81698524  0.68741479  0.30215590    -0.25400
C1455       C  0.78064694  0.68193598  0.30830710     0.37300
C1456       C  0.76671392  0.70261551  0.29549387    -0.27000
F1457       F  0.84301142  0.76006971  0.24890332    -0.19100
H1458       H  0.86389773  0.72133757  0.27392268     0.16600
F1459       F  0.75495067  0.65268873  0.32257950    -0.22800
H1460       H  0.73849390  0.69628986  0.30005917     0.18400
C1461       C  0.74370664  0.98318341  0.27514210    -0.26900
C1462       C  0.75748933  0.51694408  0.26188992     0.06700
C1463       C  0.75643220  0.51791535  0.23265892     0.26300
C1464       C  0.74165526  0.98555181  0.21697672    -0.11400
C1465       C  0.72684090  0.95116049  0.23023547    -0.25300
C1466       C  0.72804787  0.95029182  0.25961499     0.37100
C1467       C  0.77363125  0.55160849  0.27824246     0.06700
F1468       F  0.77089666  0.55060818  0.21907359    -0.19100
H1469       H  0.74132154  0.98727445  0.19446826     0.16600
F1470       F  0.71429698  0.91784905  0.27342058    -0.22800
H1471       H  0.74438258  0.98208424  0.29768040     0.18300
C1472       C  0.76008998  0.57583242  0.27459702     0.26300
C1473       C  0.77850555  0.61081231  0.28688829    -0.11300
C1474       C  0.81074953  0.62305541  0.30445245    -0.25400
C1475       C  0.82383927  0.59738931  0.30770969     0.37300
C1476       C  0.80504696  0.56227718  0.29524929    -0.27000
F1477       F  0.72965392  0.56622318  0.25801845    -0.19100
H1478       H  0.76772112  0.62816377  0.28041624     0.16600
F1479       F  0.85756280  0.60742572  0.31932622    -0.22800
H1480       H  0.81668798  0.54426498  0.29733406     0.18400
C1481       C  0.91545956  0.68149677  0.26468327    -0.26900
C1482       C  0.94584758  0.71379872  0.27534386     0.06700
C1483       C  0.94037957  0.73072012  0.29849168     0.26300
C1484       C  0.90530714  0.71492073  0.31098463    -0.11400
C1485       C  0.87465556  0.68012299  0.30262002    -0.25300
C1486       C  0.88037408  0.66598457  0.27689354     0.37100
C1487       C  0.98116343  0.73235937  0.25956524     0.06700
F1488       F  0.96831280  0.76387129  0.30808446    -0.19100
H1489       H  0.90324498  0.73111353  0.32731580     0.16600
F1490       F  0.85184453  0.63999517  0.26102359    -0.22800
H1491       H  0.91829092  0.66928686  0.24557133     0.18300
C1492       C  0.51617229  0.74451233  0.27248485     0.26300
C1493       C  0.54899223  0.76257061  0.25689907    -0.11300
C1494       C  0.54741074  0.76861721  0.22817721    -0.25400
C1495       C  0.51210867  0.75594927  0.21537066     0.37300
C1496       C  0.47959154  0.73821290  0.23095682    -0.27000
F1497       F  0.51856751  0.73827114  0.29997017    -0.19100
H1498       H  0.57561842  0.77160448  0.26730311     0.16600
F1499       F  0.50870726  0.76094278  0.18778588    -0.22800
H1500       H  0.95294584  0.72938234  0.22062803     0.18400
C1501       C  0.72890159  0.59352697  0.37074643    -0.26900
C1502       C  0.72018823  0.61470503  0.38820558     0.06700
C1503       C  0.74639726  0.65216090  0.39187446     0.26300
C1504       C  0.78139891  0.66765122  0.37954420    -0.11400
C1505       C  0.79260855  0.64656715  0.36288950    -0.25300
C1506       C  0.76396351  0.60862553  0.35832265     0.37100
C1507       C  0.68556423  0.59689932  0.40484705     0.06700
F1508       F  0.73839714  0.67402744  0.40791074    -0.19100
H1509       H  0.79922617  0.69660637  0.38407702     0.16600
F1510       F  0.77039956  0.58372482  0.34541826    -0.22800
H1511       H  0.70927189  0.56421808  0.36812752     0.18300
C1512       C  0.65032670  0.57323989  0.39256539     0.26300
C1513       C  0.61833547  0.55614117  0.40907460    -0.11300
C1514       C  0.62094395  0.56215008  0.43810770    -0.25400
C1515       C  0.65642474  0.58581310  0.45025332     0.37300
C1516       C  0.68817548  0.60275490  0.43377050    -0.27000
F1517       F  0.64675168  0.56710735  0.36461319    -0.19100
H1518       H  0.59152381  0.53810387  0.39909724     0.16600
F1519       F  0.66074349  0.59284860  0.47809147    -0.22800
H1520       H  0.71512654  0.62024239  0.44376738     0.18400
C1521       C  0.88905279  0.74422497  0.40642271    -0.26900
C1522       C  0.89017435  0.77484336  0.39395383     0.06700
C1523       C  0.87343525  0.77032893  0.36772168     0.26300
C1524       C  0.85645355  0.73596953  0.35417369    -0.11400
C1525       C  0.85683421  0.70457561  0.36528294    -0.25300
C1526       C  0.87158286  0.70967262  0.39319213     0.37100
C1527       C  0.90654405  0.81060071  0.40932529     0.06700
F1528       F  0.87148215  0.79869619  0.35575236    -0.19100
H1529       H  0.84235883  0.73522051  0.33518666     0.16600
F1530       F  0.86695540  0.68110059  0.40924496    -0.22800
H1531       H  0.90066676  0.74668475  0.42721135     0.18300
C1532       C  0.89625686  0.81180773  0.43697037     0.26300
C1533       C  0.91309134  0.84513058  0.45188760    -0.11300
C1534       C  0.94018027  0.87814478  0.43954533    -0.25400
C1535       C  0.94956872  0.87720754  0.41152030     0.37300
C1536       C  0.93296489  0.84365602  0.39666004    -0.27000
F1537       F  0.86948760  0.78079974  0.44948728    -0.19100
H1538       H  0.90474623  0.84507775  0.47321387     0.16600
F1539       F  0.97565683  0.90834798  0.39874504    -0.22800
H1540       H  0.94135374  0.84334490  0.37539920     0.18400
C1541       C  0.90863114  0.63636338  0.37535032    -0.26900
C1542       C  0.88738044  0.60458488  0.39087206     0.06700
C1543       C  0.84939834  0.59184643  0.39395101     0.26300
C1544       C  0.83296434  0.61050142  0.38163125    -0.11400
C1545       C  0.85292359  0.64197270  0.36412529    -0.25300
C1546       C  0.89239023  0.65554534  0.36326947     0.37100
C1547       C  0.90582094  0.58836497  0.40754467     0.06700
F1548       F  0.82834944  0.56231015  0.41038636    -0.19100
H1549       H  0.80526778  0.60112924  0.38885167     0.16600
F1550       F  0.91696935  0.69028940  0.35568803    -0.22800
H1551       H  0.93871718  0.64829172  0.37462619     0.18300
C1552       C  0.92200848  0.56967941  0.39480256     0.26300
C1553       C  0.93869160  0.55399823  0.41112287    -0.11300
C1554       C  0.93978938  0.55690864  0.44046664    -0.25400
C1555       C  0.92397668  0.57631667  0.45304053     0.37300
C1556       C  0.90707824  0.59163820  0.43668609    -0.27000
F1557       F  0.92095327  0.56594351  0.36664725    -0.19100
H1558       H  0.95058651  0.53936926  0.40071715     0.16600
F1559       F  0.92488204  0.58076202  0.48111762    -0.22800
H1560       H  0.89502175  0.60633220  0.44679885     0.18400
C1561       C  0.77803265  0.89893465  0.63680016    -0.26900
C1562       C  0.78280535  0.88533933  0.61152382     0.06700
C1563       C  0.75154455  0.85592921  0.59855901     0.26300
C1564       C  0.71663000  0.83999151  0.61112281    -0.11400
C1565       C  0.71145099  0.85020843  0.63836317    -0.25300
C1566       C  0.74303894  0.88283458  0.64951885     0.37100
C1567       C  0.81961217  0.90344947  0.59761427     0.06700
F1568       F  0.75431476  0.84354253  0.57301585    -0.19100
H1569       H  0.69336090  0.81901775  0.59909178     0.16600
F1570       F  0.74135959  0.90103500  0.67211402    -0.22800
H1571       H  0.80151310  0.92282100  0.64659749     0.18300
C1572       C  0.83876741  0.94164813  0.59245525     0.26300
C1573       C  0.87158053  0.95776774  0.57693880    -0.11300
C1574       C  0.88618390  0.93627495  0.56640419    -0.25400
C1575       C  0.86780434  0.89824539  0.57270422     0.37300
C1576       C  0.83480924  0.88212994  0.58803847    -0.27000
F1577       F  0.82486642  0.96314543  0.60127956    -0.19100
H1578       H  0.88520015  0.98710669  0.57275708     0.16600
F1579       F  0.88092461  0.87626373  0.56344367    -0.22800
H1580       H  0.82072096  0.85273289  0.59212587     0.18400
C1581       C  0.55706736  0.64998822  0.60737834    -0.26900
C1582       C  0.59234038  0.68027426  0.60087328     0.06700
C1583       C  0.61058570  0.67798477  0.57697671     0.26300
C1584       C  0.59434027  0.64604925  0.56041205    -0.11400
C1585       C  0.55914053  0.61596510  0.56675496    -0.25300
C1586       C  0.54041355  0.61816000  0.59035853     0.37100
C1587       C  0.60996596  0.71478833  0.61812478     0.06700
F1588       F  0.64370311  0.70716266  0.56904625    -0.19100
H1589       H  0.60903247  0.64511424  0.54215001     0.16600
F1590       F  0.50667665  0.58917108  0.59743176    -0.22800
H1591       H  0.54255016  0.65084899  0.62575837     0.18300
C1592       C  0.59015517  0.73248844  0.62551308     0.26300
C1593       C  0.60891738  0.76809417  0.63723111    -0.11300
C1594       C  0.64848070  0.78851924  0.64071690    -0.25400
C1595       C  0.66692978  0.76771888  0.63666203     0.37300
C1596       C  0.64798467  0.73195927  0.62533817    -0.27000
F1597       F  0.55312399  0.71683745  0.61928665    -0.19100
H1598       H  0.59224766  0.78072359  0.64012823     0.16600
F1599       F  0.70352789  0.78151901  0.64349541    -0.22800
H1600       H  0.66351573  0.71792180  0.62146774     0.18400
C1601       C  0.56994017  0.89554058  0.58959426    -0.26900
C1602       C  0.60911917  0.91308376  0.58993573     0.06700
C1603       C  0.62983113  0.94707585  0.57629217     0.26300
C1604       C  0.61138138  0.96275986  0.56218045    -0.11400
C1605       C  0.57201028  0.94474770  0.56128798    -0.25300
C1606       C  0.55149345  0.91113017  0.57558242     0.37100
C1607       C  0.62745202  0.89429861  0.60333976     0.06700
F1608       F  0.66773533  0.96426866  0.57555007    -0.19100
H1609       H  0.62793530  0.98855015  0.55130785     0.16600
F1610       F  0.51355383  0.89325629  0.57618849    -0.22800
H1611       H  0.55353458  0.86945240  0.60015297     0.18300
C1612       C  0.65506464  0.91141826  0.62407514     0.26300
C1613       C  0.66993526  0.89173093  0.63727882    -0.11300
C1614       C  0.65541066  0.85341542  0.63252015    -0.25400
C1615       C  0.63319757  0.83951935  0.60756176     0.37300
C1616       C  0.61788090  0.85878121  0.59450569    -0.27000
F1617       F  0.66734980  0.94693642  0.63193759    -0.19100
H1618       H  0.69310291  0.90717958  0.65126966     0.16600
F1619       F  0.62919959  0.80964400  0.59341247    -0.22800
H1620       H  0.59954262  0.84643180  0.57654056     0.18400
C1621       C  0.92672245  0.85476521  0.89470319    -0.26900
C1622       C  0.92801316  0.85339669  0.92387669     0.06700
C1623       C  0.91033924  0.81882018  0.93697080     0.26300
C1624       C  0.89279164  0.78623013  0.92099476    -0.11400
C1625       C  0.89220030  0.78747716  0.89167083    -0.25300
C1626       C  0.90901551  0.82233398  0.87870525     0.37100
C1627       C  0.94724146  0.88829281  0.94029921     0.06700
F1628       F  0.91084121  0.81655062  0.96516835    -0.19100
H1629       H  0.87993339  0.75997442  0.93165237     0.16600
F1630       F  0.90871444  0.82536652  0.85055870    -0.22800
H1631       H  0.93934906  0.88116628  0.88423505     0.18300
C1632       C  0.98348355  0.91584656  0.93386536     0.26300
C1633       C  0.99996834  0.95018637  0.94731895    -0.11300
C1634       C  0.98177424  0.95900060  0.96871880    -0.25400
C1635       C  0.94395007  0.93028250  0.97375101     0.37300
C1636       C  0.92794061  0.89571289  0.96049673    -0.27000
F1637       F  0.00284369  0.91006522  0.91370957    -0.19100
H1638       H  0.52645746  0.97001000  0.93875779     0.16600
F1639       F  0.91974465  0.93600578  0.98827636    -0.22800
H1640       H  0.89903173  0.87542176  0.96464132     0.18400
C1641       C  0.64648589  0.57568859  0.89750060    -0.26900
C1642       C  0.64845566  0.57649489  0.92670516     0.06700
C1643       C  0.68371290  0.59243557  0.93999187     0.26300
C1644       C  0.71637251  0.60802533  0.92415369    -0.11400
C1645       C  0.71439313  0.60777215  0.89482607    -0.25300
C1646       C  0.67885318  0.59119395  0.88168877     0.37100
C1647       C  0.61330655  0.56021533  0.94272465     0.06700
F1648       F  0.68659478  0.59363012  0.96822205    -0.19100
H1649       H  0.74320802  0.62040253  0.93488316     0.16600
F1650       F  0.67503437  0.58988775  0.85350456    -0.22800
H1651       H  0.61959774  0.56275314  0.88679725     0.18300
C1652       C  0.58561762  0.56870294  0.93592845     0.26300
C1653       C  0.55053452  0.54966421  0.94807330    -0.11300
C1654       C  0.54144948  0.52264518  0.96930428    -0.25400
C1655       C  0.57004180  0.51345022  0.97463033     0.37300
C1656       C  0.60524082  0.53261158  0.96220049    -0.27000
F1657       F  0.59188983  0.59466214  0.91647461    -0.19100
H1658       H  0.53041273  0.55551502  0.93865910     0.16600
F1659       F  0.56333603  0.48290692  0.98849269    -0.22800
H1660       H  0.62544759  0.52390663  0.96638300     0.18400
C1661       C  0.92602362  0.57103655  0.89630595    -0.26900
C1662       C  0.92306677  0.56990533  0.92538369     0.06700
C1663       C  0.90595365  0.58751521  0.93845996     0.26300
C1664       C  0.89144805  0.60548990  0.92249577    -0.11400
C1665       C  0.89404141  0.60642102  0.89324381    -0.25300
C1666       C  0.91184096  0.58911138  0.88032225     0.37100
C1667       C  0.93920591  0.55131563  0.94173322     0.06700
F1668       F  0.90262940  0.58665991  0.96659182    -0.19100
H1669       H  0.87789831  0.61840538  0.93306346     0.16600
F1670       F  0.91575038  0.58956079  0.85224540    -0.22800
H1671       H  0.93978451  0.55815767  0.88594847     0.18300
C1672       C  0.92897374  0.51475396  0.93595241     0.26300
C1673       C  0.94794708  0.49886986  0.94860737    -0.11300
C1674       C  0.97727965  0.51800174  0.96882324    -0.25400
C1675       C  0.98775591  0.55601492  0.97326833     0.37300
C1676       C  0.96841085  0.57160142  0.96055180    -0.27000
F1677       F  0.90128853  0.49454572  0.91707730    -0.19100
H1678       H  0.93937649  0.97182823  0.94077546     0.16600
F1679       F  0.51982810  0.58044353  0.98623009    -0.22800
H1680       H  0.97816805  0.60069692  0.96393966     0.18400
C1681       C  0.67869432  0.74715592  0.71079085    -0.26900
C1682       C  0.71711237  0.76491248  0.71649630     0.06700
C1683       C  0.73960849  0.80166645  0.70812994     0.26300
C1684       C  0.72345324  0.82098228  0.69652773    -0.11400
C1685       C  0.68414396  0.80540793  0.69442710    -0.25300
C1686       C  0.66238286  0.76653255  0.69954770     0.35600
C1687       C  0.73321679  0.74579164  0.73251534     0.06700
F1688       F  0.77707146  0.82013604  0.71320807    -0.19100
H1689       H  0.74217233  0.84966783  0.69260452     0.16600
F1690       F  0.62524669  0.74653343  0.69332758    -0.22800
H1691       H  0.66101498  0.71807774  0.71538204     0.18300
C1692       C  0.71626145  0.72689080  0.75721857     0.26300
C1693       C  0.73307375  0.71138806  0.77338034    -0.11300
C1694       C  0.76746675  0.71533426  0.76566651    -0.25400
C1695       C  0.78415507  0.73355298  0.74082800     0.37300
C1696       C  0.76684810  0.74817244  0.72421508    -0.27000
F1697       F  0.68450900  0.72507361  0.76656190    -0.19100
H1698       H  0.72002651  0.69765674  0.79260505     0.16600
F1699       F  0.81702531  0.73695868  0.73255418    -0.22800
H1700       H  0.78003386  0.76184841  0.70502577     0.18400
C1701       C  0.55928652  0.79442131  0.69857267    -0.26900
C1702       C  0.55499181  0.77824202  0.72470919     0.06700
C1703       C  0.58637287  0.78139509  0.73842178     0.26300
C1704       C  0.62079383  0.79829187  0.72536953    -0.11400
C1705       C  0.62527075  0.81057952  0.69725263    -0.25300
C1706       C  0.59407154  0.81174599  0.68549961     0.37100
C1707       C  0.51833097  0.75948392  0.73842600     0.06700
F1708       F  0.58402725  0.76901310  0.76487244    -0.19100
H1709       H  0.64425272  0.80106251  0.73749360     0.16600
F1710       F  0.59645209  0.83129245  0.66256222    -0.22800
H1711       H  0.53570443  0.79432477  0.68842814     0.18300
C1712       C  0.99851573  0.77798855  0.74336900     0.26300
C1713       C  0.96540449  0.76077462  0.75847915    -0.11300
C1714       C  0.95142753  0.72478995  0.76882449    -0.25400
C1715       C  0.97098425  0.70601230  0.76313827     0.37300
C1716       C  0.50409288  0.72333390  0.74812128    -0.27000
F1717       F  0.01199627  0.81323710  0.73464462    -0.19100
H1718       H  0.95101207  0.77591920  0.76242045     0.16600
F1719       F  0.95881795  0.67129439  0.77259572    -0.22800
H1720       H  0.51903066  0.70866541  0.74434878     0.18400
C1721       C  0.72420913  0.91000571  0.73952683    -0.26900
C1722       C  0.71387478  0.93586696  0.73212484     0.06700
C1723       C  0.68505474  0.92564269  0.71247652     0.26300
C1724       C  0.66938457  0.89133728  0.69892856    -0.11400
C1725       C  0.68351912  0.86695102  0.70257509    -0.25300
C1726       C  0.70774721  0.87536369  0.72645217     0.37100
C1727       C  0.73231114  0.97258174  0.74601727     0.06700
F1728       F  0.67223571  0.94891357  0.70602163    -0.19100
H1729       H  0.64577484  0.88417388  0.68546894     0.16600
F1730       F  0.71239568  0.84961509  0.74005620    -0.22800
H1731       H  0.74374390  0.91593606  0.75668389     0.18300
C1732       C  0.71149309  0.98557316  0.76009899     0.26300
C1733       C  0.72942899  0.51993465  0.77382314    -0.11300
C1734       C  0.76869674  0.54187416  0.77377238    -0.25400
C1735       C  0.78943850  0.52865307  0.75965894     0.37300
C1736       C  0.77115725  0.49431350  0.74610010    -0.27000
F1737       F  0.67372720  0.96435949  0.76181288    -0.19100
H1738       H  0.71274111  0.52905044  0.78484439     0.16600
F1739       F  0.82735750  0.54882093  0.75879462    -0.22800
H1740       H  0.78761943  0.48467978  0.73535904     0.18400
loop_ 
_geom_bond_atom_site_label_1 
_geom_bond_atom_site_label_2 
_geom_bond_distance 
_geom_bond_site_symmetry_2 
_ccdc_geom_bond_type 
O1           C17   1.273       .  A
O1           Zn7   2.016       .  S
C2           O18   1.274       .  A
C2           O15   1.273       .  A
C2          C429   1.483       .  S
O3           C16   1.276       .  A
O3          Cd10   2.080       .  S
O4           C22   1.273       .  A
O4          Cd13   2.053       .  S
O5           C19   1.274       .  A
O5           Cd9   2.063       .  S
O6           C17   1.273       .  A
O6           Cd9   2.064       .  S
Zn7          O18   2.020       .  S
Zn7          O20   1.995       .  S
Zn7          O12   1.936       .  S
O8           C19   1.273       .  A
O8          Cd13   2.058       .  S
Cd9          O11   2.068       .  S
Cd9          O12   1.994       .  S
Cd10         O14   2.081       .  S
Cd10         O23   2.083       .  S
Cd10         O12   2.010       .  S
O11          C21   1.276       .  A
O12         Cd13   1.990       .  S
Cd13         O15   2.060       .  S
O14          C21   1.277       .  A
C16          O20   1.272       .  A
C16         C340   1.485       .  S
C17         C389   1.469       .  S
C19         C409   1.481       .  S
C21         C320   1.488       .  S
C22          O23   1.277       .  A
C22         C360   1.485       .  S
C24          C50   1.695       .  S
C24         C380   1.590       .  S
C24         C400   1.579       .  S
C24         C420   1.585       .  S
C25          C74   1.715   1_566  S
C25         C349   1.602   1_565  S
C25        C1634   1.605   1_455  S
C25        C1239   1.600   1_465  S
O26          C42   1.276       .  A
O26        Zn467   2.028       .  S
C27          O43   1.276       .  A
C27          O40   1.275       .  A
C27         C280   1.479       .  S
O28          C41   1.276       .  A
O28        Cd470   2.076   1_545  S
O29          C47   1.274       .  A
O29         Cd38   2.058       .  S
O30          C44   1.276       .  A
O30        Cd904   2.074   1_455  S
O31          C42   1.274       .  A
O31         Cd34   2.065       .  S
Zn32         O45   2.040       .  S
Zn32        O461   2.027   1_545  S
Zn32        O913   2.039       .  S
Zn32        O472   1.953   1_545  S
O33          C44   1.275       .  A
O33        Cd473   2.077       .  S
Cd34         O36   2.067       .  S
Cd34        O900   2.074       .  S
Cd34         O37   1.997       .  S
Cd35         O39   2.082       .  S
Cd35        O463   2.075       .  S
Cd35       O1353   2.079       .  S
Cd35         O37   2.013       .  S
O36          C46   1.275       .  A
O37        Zn467   1.953       .  S
O37       Cd1343   1.996       .  S
Cd38         O40   2.067       .  S
Cd38        O468   2.079   1_545  S
Cd38       O1342   1.997   1_545  S
O39          C46   1.276       .  A
C41          O45   1.278       .  A
C41         C249   1.492       .  S
C42         C269   1.487       .  S
O43        Zn902   2.039   1_455  S
C44         C300   1.486       .  S
C46         C229   1.483       .  S
C47          O48   1.276       .  A
C47         C209   1.485       .  S
O48       Cd1340   2.080   1_545  S
C49          C75   1.707       .  S
C49         C200   1.599       .  S
C49         C220   1.595       .  S
C49         C240   1.605       .  S
C50         C260   1.587       .  S
C50         C289   1.600       .  S
C50         C309   1.583       .  S
O51          C67   1.276       .  A
O51         Zn57   2.025       .  S
C52          O68   1.274       .  A
C52          O65   1.275       .  A
C52         C129   1.487       .  S
O53          C66   1.275       .  A
O53         Cd60   2.066       .  S
O54          C72   1.274       .  A
O54         Cd63   2.056       .  S
O55          C69   1.274       .  A
O55         Cd59   2.058       .  S
O56          C67   1.273       .  A
O56         Cd59   2.061       .  S
Zn57         O68   2.027       .  S
Zn57         O70   2.008       .  S
Zn57         O62   1.942       .  S
O58          C69   1.274       .  A
O58         Cd63   2.065       .  S
Cd59         O61   2.062       .  S
Cd59         O62   1.989       .  S
Cd60         O64   2.077       .  S
Cd60         O73   2.080       .  S
Cd60         O62   2.008       .  S
O61          C71   1.274       .  A
O62         Cd63   1.990       .  S
Cd63         O65   2.067       .  S
O64          C71   1.275       .  A
C66          O70   1.275       .  A
C66         C160   1.481       .  S
C67          C89   1.484       .  S
C69         C100   1.478       .  S
C71         C140   1.486       .  S
C72          O73   1.276       .  A
C72         C189   1.485       .  S
C74         C109   1.601       .  S
C74        C1385   1.600   1_445  S
C74         C555   1.602   1_545  S
C75         C149   1.604       .  S
C75         C169   1.580       .  S
C75         C180   1.596       .  S
C76          C77   1.392       .  A
C76          C81   1.397       .  A
C76          H86   1.084       .  S
C77          C82   1.480       .  S
C77          C78   1.394       .  A
C78          C79   1.395       .  A
C78          F83   1.358       .  S
C79          C80   1.430       .  A
C79          H84   1.075       .  S
C80        C1379   1.600       .  S
C80          C81   1.438       .  A
C81         F520   1.343       .  S
C82          C87   1.406       .  A
C82          C91   1.402       .  A
F85         C516   1.344   1_545  S
C87          C88   1.397       .  A
C87          F92   1.358       .  S
C88          C89   1.406       .  A
C88          H93   1.083       .  S
C89          C90   1.411       .  A
C90          C91   1.398       .  A
C90          F94   1.357       .  S
C91          H95   1.083       .  S
C96          C97   1.402       .  A
C96         C101   1.398       .  A
C96         H106   1.083       .  S
C97         C102   1.475       .  S
C97          C98   1.404       .  A
C98          C99   1.394       .  A
C98         F103   1.358       .  S
C99         C100   1.406       .  A
C99         H104   1.083       .  S
C100        C101   1.410       .  A
C101        F105   1.357       .  S
C102        C107   1.391       .  A
C102        C111   1.393       .  A
C107        C108   1.392   1_455  A
C107        F112   1.359   1_455  S
C108        C109   1.432   1_655  A
C108        H983   1.074       .  S
C109        C110   1.435       .  A
C110        C111   1.398       .  A
C110        F114   1.344       .  S
C111        H115   1.084       .  S
H113        C978   1.074       .  S
C116        C117   1.395       .  A
C116        C121   1.398       .  A
C116        H126   1.083       .  S
C117        C122   1.487       .  S
C117        C118   1.395       .  A
C118        C119   1.396       .  A
C118        F123   1.358       .  S
C119        C120   1.432       .  A
C119        H559   1.074       .  S
C120        C509   1.602       .  S
C120        C121   1.434       .  A
C121        F125   1.343   1_455  S
C122        C127   1.407       .  A
C122        C131   1.405       .  A
H124        C554   1.074       .  S
C127        C128   1.396       .  A
C127        F132   1.358       .  S
C128        C129   1.406       .  A
C128        H133   1.083       .  S
C129        C130   1.411       .  A
C130        C131   1.401       .  A
C130        F134   1.357       .  S
C131        H135   1.083       .  S
C136        C137   1.403       .  A
C136        C141   1.401       .  A
C136        H146   1.083       .  S
C137        C142   1.480       .  S
C137        C138   1.405       .  A
C138        C139   1.395       .  A
C138        F143   1.358       .  S
C139        C140   1.407       .  A
C139        H144   1.083       .  S
C140        C141   1.412       .  A
C141        F145   1.357       .  S
C142        C147   1.394       .  A
C142        C151   1.391       .  A
C147        C148   1.395       .  A
C147        F152   1.358       .  S
C148        C149   1.433       .  A
C148        H153   1.075       .  S
C149        C150   1.435       .  A
C150        C151   1.398       .  A
C150        F154   1.345       .  S
C151        H155   1.084       .  S
C156        C161   1.399       .  A
C156        C592   1.401       .  A
C156        H166   1.083       .  S
C157        C162   1.474       .  S
C157        C158   1.404       .  A
C157        C591   1.401   1_545  A
C158        C594   1.393   1_545  A
C158        F163   1.358       .  S
C159        C160   1.406       .  A
C159        C593   1.393       .  A
C159        H164   1.083       .  S
C160        C161   1.412       .  A
C161        F165   1.357       .  S
C162        C167   1.393       .  A
C162        C171   1.395       .  A
C167        C168   1.391       .  A
C167        F172   1.359       .  S
C168        C169   1.427       .  A
C168        H173   1.071       .  S
C169        C170   1.433       .  A
C170        C171   1.399       .  A
C170        F174   1.351       .  S
C171        H175   1.084       .  S
C176        C177   1.393       .  A
C176        C181   1.394       .  A
C176        H186   1.084       .  S
C177        C182   1.481       .  S
C177        C178   1.396       .  A
C178        C179   1.398       .  A
C178        F183   1.358       .  S
C179        C180   1.420       .  A
C179        H184   1.066       .  S
C180        C181   1.440       .  A
C181        F185   1.356       .  S
C182       C1057   1.406       .  A
C182       C1061   1.402       .  A
C187        C188   1.402       .  A
C187       C1052   1.406   1_455  A
C187        F192   1.357       .  S
C188        C189   1.409       .  A
C188        H193   1.083       .  S
C189        C190   1.411       .  A
C190        C191   1.392   1_455  A
C190        F194   1.357       .  S
C191       C1052   1.402       .  A
C191       H1065   1.083       .  S
H195       C1061   1.083       .  S
C196        C197   1.393       .  A
C196        C201   1.399       .  A
C196        H206   1.084       .  S
C197        C202   1.483       .  S
C197        C198   1.396       .  A
C198        C199   1.394       .  A
C198        F203   1.358       .  S
C199        C200   1.431       .  A
C199        H204   1.075       .  S
C200        C201   1.439       .  A
C201        F205   1.349       .  S
C202        C207   1.407       .  A
C202        C211   1.402       .  A
C207        C208   1.401       .  A
C207        F212   1.357       .  S
C208        C209   1.408       .  A
C208        H213   1.083       .  S
C209        C210   1.410       .  A
C210        C211   1.393       .  A
C210        F214   1.358       .  S
C211        H215   1.083       .  S
C216        C217   1.395       .  A
C216        C221   1.396       .  A
C216        H226   1.084       .  S
C217        C222   1.483       .  S
C217        C218   1.395       .  A
C218        C219   1.396       .  A
C218        F223   1.358       .  S
C219        C220   1.426       .  A
C219        H224   1.068       .  S
C220        C221   1.436       .  A
C221        F225   1.356       .  S
C222        C227   1.406       .  A
C222        C231   1.405       .  A
C227        C228   1.396       .  A
C227        F232   1.358       .  S
C228        C229   1.405       .  A
C228        H233   1.083       .  S
C229        C230   1.409       .  A
C230        C231   1.401       .  A
C230        F234   1.357       .  S
C231        H235   1.083       .  S
C236        C237   1.392       .  A
C236        C241   1.403       .  A
C236        H246   1.084       .  S
C237        C242   1.480       .  S
C237        C238   1.391       .  A
C238        C239   1.396       .  A
C238        F243   1.358       .  S
C239        C240   1.432       .  A
C239        H244   1.069       .  S
C240        C241   1.434       .  A
C241        F245   1.343       .  S
C242        C247   1.402       .  A
C242        C251   1.402       .  A
C247        C248   1.402       .  A
C247        F252   1.357       .  S
C248        C249   1.411       .  A
C248        H253   1.083       .  S
C249        C250   1.411       .  A
C250        C251   1.399       .  A
C250        F254   1.357       .  S
C251        H255   1.084       .  S
C256        C257   1.396       .  A
C256        C261   1.400       .  A
C256        H266   1.083       .  S
C257        C262   1.484       .  S
C257        C258   1.397       .  A
C258        C259   1.394       .  A
C258        F263   1.358       .  S
C259        C260   1.426       .  A
C259        H264   1.079       .  S
C260        C261   1.429       .  A
C261        F265   1.346       .  S
C262        C267   1.406       .  A
C262        C271   1.404       .  A
C267        C268   1.398       .  A
C267        F272   1.357       .  S
C268        C269   1.407       .  A
C268        H273   1.083       .  S
C269        C270   1.412       .  A
C270        C271   1.399       .  A
C270        F274   1.358       .  S
C271        H275   1.083       .  S
C276        C277   1.408       .  A
C276        C281   1.405       .  A
C276        H286   1.083       .  S
C277        C282   1.492       .  S
C277        C278   1.409       .  A
C278        C279   1.396       .  A
C278        F283   1.357       .  S
C279        C280   1.402       .  A
C279        H284   1.083       .  S
C280        C281   1.408       .  A
C281        F285   1.358       .  S
C282        C287   1.401       .  A
C282        C291   1.399       .  A
C287        C288   1.400       .  A
C287        F292   1.358       .  S
C288        C289   1.422       .  A
C288        H293   1.069       .  S
C289        C290   1.431       .  A
C290        C291   1.398       .  A
C290        F294   1.357       .  S
C291        H295   1.083       .  S
C296        C297   1.403       .  A
C296        C301   1.397       .  A
C296        H306   1.084       .  S
C297        C302   1.482       .  S
C297        C298   1.406       .  A
C298        C299   1.402       .  A
C298        F303   1.357       .  S
C299        C300   1.409       .  A
C299        H304   1.083       .  S
C300        C301   1.409       .  A
C301        F305   1.357       .  S
C302        C307   1.398       .  A
C302        C311   1.395       .  A
C307        C308   1.401       .  A
C307        F312   1.357       .  S
C308        C309   1.417       .  A
C308        H313   1.071       .  S
C309        C310   1.432       .  A
C310        C311   1.397       .  A
C310        F314   1.355       .  S
C311        H315   1.084       .  S
C316        C317   1.403       .  A
C316        C321   1.396       .  A
C316        H326   1.083       .  S
C317        C322   1.483       .  S
C317        C318   1.405       .  A
C318        C319   1.401       .  A
C318        F323   1.357       .  S
C319        C320   1.409       .  A
C319        H324   1.083       .  S
C320        C321   1.411       .  A
C321        F325   1.357       .  S
C322        C327   1.395       .  A
C322        C331   1.392       .  A
C327        C328   1.395       .  A
C327        F332   1.358       .  S
C328        C329   1.432       .  A
C328       H1203   1.074       .  S
C329       C1330   1.605       .  S
C329        C330   1.438       .  A
C330        C331   1.399       .  A
C330        F334   1.342       .  S
C331        H335   1.084       .  S
H333       C1198   1.074       .  S
C336        C337   1.402       .  A
C336        C341   1.393       .  A
C336        H346   1.083       .  S
C337        C342   1.482       .  S
C337        C338   1.406       .  A
C338        C339   1.401       .  A
C338        F343   1.357       .  S
C339        C340   1.408       .  A
C339        H344   1.083       .  S
C340        C341   1.411       .  A
C341        F345   1.358       .  S
C342        C347   1.395       .  A
C342        C351   1.394       .  A
C347        C348   1.392       .  A
C347        F352   1.359       .  S
C348        C349   1.430       .  A
C348        H353   1.074       .  S
C349        C350   1.436       .  A
C350        C351   1.401       .  A
C350        F354   1.343   1_545  S
C351        H355   1.084       .  S
C356        C357   1.401       .  A
C356        C361   1.394       .  A
C356        H366   1.084       .  S
C357        C362   1.477       .  S
C357        C358   1.403       .  A
C358        C359   1.400       .  A
C358        F363   1.357       .  S
C359        C360   1.408       .  A
C359        H364   1.083       .  S
C360        C361   1.412       .  A
C361        F365   1.358       .  S
C362        C367   1.393       .  A
C362        C371   1.391       .  A
C367        C368   1.394   1_545  A
C367        F372   1.358   1_545  S
C368        C369   1.430   1_565  A
C368        H808   1.073       .  S
C369        C895   1.600   1_545  S
C369        C370   1.437       .  A
C370        C371   1.398       .  A
C370       F1244   1.344       .  S
C371        H375   1.084       .  S
H373        C803   1.073       .  S
F374       C1240   1.344   1_455  S
C376        C377   1.398       .  A
C376        C381   1.396       .  A
C376        H386   1.083       .  S
C377        C382   1.485       .  S
C377        C378   1.402       .  A
C378        C379   1.395       .  A
C378        F383   1.357       .  S
C379        C380   1.417       .  A
C379        H384   1.070       .  S
C380        C381   1.432       .  A
C381        F385   1.358       .  S
C382        C387   1.410       .  A
C382        C391   1.406       .  A
C387        C388   1.397       .  A
C387        F392   1.358       .  S
C388        C389   1.401       .  A
C388        H393   1.084       .  S
C389        C390   1.404       .  A
C390        C391   1.397       .  A
C390        F394   1.357       .  S
C391        H395   1.083       .  S
C396        C397   1.397       .  A
C396        C401   1.400       .  A
C396        H406   1.083       .  S
C397        C402   1.474       .  S
C397        C398   1.394       .  A
C398        C399   1.388       .  A
C398        F403   1.358       .  S
C399        C400   1.425       .  A
C399        H404   1.080       .  S
C400        C401   1.426       .  A
C401        F405   1.348       .  S
C402        C411   1.402       .  A
C402       C1277   1.403   1_455  A
C407        C408   1.397       .  A
C407       C1272   1.403       .  A
C407        F412   1.357       .  S
C408        C409   1.408       .  A
C408        H413   1.083       .  S
C409        C410   1.410       .  A
C410       C1281   1.394       .  A
C410        F414   1.358       .  S
C411       C1280   1.394   1_455  A
C411        H415   1.084       .  S
C416        C417   1.394       .  A
C416        C421   1.396       .  A
C416        H426   1.084       .  S
C417        C422   1.480       .  S
C417        C418   1.397       .  A
C418        C419   1.397       .  A
C418        F423   1.357       .  S
C419        C420   1.418       .  A
C419        H424   1.073       .  S
C420        C421   1.435       .  A
C421        F425   1.354       .  S
C422        C427   1.405       .  A
C422        C866   1.403       .  A
C427        C863   1.398       .  A
C427        F432   1.357       .  S
C428        C429   1.407       .  A
C428        C862   1.398   1_545  A
C428        H433   1.083       .  S
C429        C430   1.410       .  A
C430        C431   1.397   1_545  A
C430        F434   1.358       .  S
C431        C857   1.403       .  A
C431        H435   1.084       .  S
O436        C452   1.274       .  A
O436       Zn442   2.016       .  S
C437        O453   1.274       .  A
C437        O450   1.273       .  A
C437        C864   1.483       .  S
O438        C451   1.276       .  A
O438       Cd445   2.081       .  S
O439        C457   1.273       .  A
O439       Cd448   2.053       .  S
O440        C454   1.274       .  A
O440       Cd444   2.064       .  S
O441        C452   1.273       .  A
O441       Cd444   2.063       .  S
Zn442       O453   2.020       .  S
Zn442       O455   1.997       .  S
Zn442       O447   1.936       .  S
O443        C454   1.273       .  A
O443       Cd448   2.061       .  S
Cd444       O446   2.068       .  S
Cd444       O447   1.994       .  S
Cd445       O449   2.080       .  S
Cd445       O458   2.083       .  S
Cd445       O447   2.010       .  S
O446        C456   1.276       .  A
O447       Cd448   1.990       .  S
Cd448       O450   2.059       .  S
O449        C456   1.277       .  A
C451        O455   1.272       .  A
C451        C775   1.485       .  S
C452        C824   1.469       .  S
C454        C844   1.482       .  S
C456        C755   1.488       .  S
C457        O458   1.277       .  A
C457        C795   1.485       .  S
C459        C485   1.695       .  S
C459        C815   1.590       .  S
C459        C835   1.579       .  S
C459        C855   1.585       .  S
C460        C509   1.715   1_556  S
C460       C1199   1.605   1_455  S
C460        C784   1.602       .  S
C460       C1674   1.600   1_455  S
O461        C477   1.276       .  A
C462        O478   1.276       .  A
C462        O475   1.274       .  A
C462        C715   1.479       .  S
O463        C476   1.276       .  A
O464        C482   1.274       .  A
O464       Cd473   2.058       .  S
O465        C479   1.276       .  A
O465      Cd1339   2.074   1_455  S
O466        C477   1.274       .  A
O466       Cd469   2.066       .  S
Zn467      O1348   2.041       .  S
Zn467       O480   2.042       .  S
O468        C479   1.275       .  A
Cd469      O1335   2.074       .  S
Cd469       O471   2.068       .  S
Cd469       O472   1.996       .  S
Cd470       O474   2.084       .  S
Cd470       O918   2.080   1_565  S
Cd470       O472   2.013       .  S
O471        C481   1.276       .  A
O472       Cd908   1.997   1_565  S
Cd473       O475   2.067       .  S
Cd473       O907   1.996       .  S
O474        C481   1.276       .  A
C476        O480   1.278       .  A
C476        C684   1.492       .  S
C477        C704   1.486       .  S
O478      Zn1337   2.041   1_455  S
C479        C735   1.487       .  S
C481        C664   1.484       .  S
C482        O483   1.276       .  A
C482        C644   1.485       .  S
O483       Cd905   2.079       .  S
C484        C510   1.707       .  S
C484        C635   1.600       .  S
C484        C655   1.595       .  S
C484        C675   1.604       .  S
C485        C695   1.587       .  S
C485        C724   1.601       .  S
C485        C744   1.583       .  S
O486        C502   1.276       .  A
O486       Zn492   2.026       .  S
C487        O503   1.274       .  A
C487        O500   1.275       .  A
C487        C564   1.486       .  S
O488        C501   1.275       .  A
O488       Cd495   2.066       .  S
O489        C507   1.274       .  A
O489       Cd498   2.056       .  S
O490        C504   1.274       .  A
O490       Cd494   2.058       .  S
O491        C502   1.273       .  A
O491       Cd494   2.061       .  S
Zn492       O503   2.025       .  S
Zn492       O505   2.007       .  S
Zn492       O497   1.942       .  S
O493        C504   1.274       .  A
O493       Cd498   2.064       .  S
Cd494       O496   2.061       .  S
Cd494       O497   1.989       .  S
Cd495       O499   2.077       .  S
Cd495       O508   2.081       .  S
Cd495       O497   2.007       .  S
O496        C506   1.274       .  A
O497       Cd498   1.989       .  S
Cd498       O500   2.066       .  S
O499        C506   1.275       .  A
C501        O505   1.275       .  A
C501        C595   1.481       .  S
C502        C524   1.484       .  S
C504        C535   1.479       .  S
C506        C575   1.486       .  S
C507        O508   1.276       .  A
C507        C624   1.486       .  S
C509        C950   1.600   1_455  S
C509        C544   1.601       .  S
C510        C584   1.604       .  S
C510        C604   1.580       .  S
C510        C615   1.596       .  S
C511        C512   1.392       .  A
C511        C516   1.397       .  A
C511        H521   1.084       .  S
C512        C517   1.480       .  S
C512        C513   1.394       .  A
C513        C514   1.395       .  A
C513        F518   1.358       .  S
C514        C515   1.430       .  A
C514        H519   1.074       .  S
C515        C944   1.600   1_565  S
C515        C516   1.438       .  A
C517        C522   1.406       .  A
C517        C526   1.402       .  A
C522        C523   1.397       .  A
C522        F527   1.358       .  S
C523        C524   1.406       .  A
C523        H528   1.083       .  S
C524        C525   1.411       .  A
C525        C526   1.398       .  A
C525        F529   1.357       .  S
C526        H530   1.083       .  S
C531        C532   1.402       .  A
C531        C536   1.398       .  A
C531        H541   1.083       .  S
C532        C537   1.475       .  S
C532        C533   1.404       .  A
C533        C534   1.394       .  A
C533        F538   1.358       .  S
C534        C535   1.406       .  A
C534        H539   1.083       .  S
C535        C536   1.410       .  A
C536        F540   1.357       .  S
C537        C542   1.391       .  A
C537        C546   1.393       .  A
C542        C543   1.392   1_455  A
C542        F547   1.359   1_455  S
C543        C544   1.432   1_655  A
C543       H1418   1.074       .  S
C544        C545   1.436       .  A
C545        C546   1.398       .  A
C545        F549   1.343       .  S
C546        H550   1.084       .  S
H548       C1413   1.074       .  S
C551        C552   1.395       .  A
C551        C556   1.398       .  A
C551        H561   1.083       .  S
C552        C557   1.486       .  S
C552        C553   1.395       .  A
C553        C554   1.396   1_565  A
C553        F558   1.358   1_565  S
C554        C555   1.432   1_545  A
C555        C556   1.434       .  A
C556        F560   1.342   1_455  S
C557        C562   1.407       .  A
C557        C566   1.405       .  A
C562        C563   1.396       .  A
C562        F567   1.358       .  S
C563        C564   1.406       .  A
C563        H568   1.083       .  S
C564        C565   1.411       .  A
C565        C566   1.401       .  A
C565        F569   1.357       .  S
C566        H570   1.083       .  S
C571        C572   1.403       .  A
C571        C576   1.401       .  A
C571        H581   1.083       .  S
C572        C577   1.481       .  S
C572        C573   1.405       .  A
C573        C574   1.395       .  A
C573        F578   1.358       .  S
C574        C575   1.407       .  A
C574        H579   1.083       .  S
C575        C576   1.411       .  A
C576        F580   1.357       .  S
C577        C582   1.394       .  A
C577        C586   1.392       .  A
C582        C583   1.395       .  A
C582        F587   1.358       .  S
C583        C584   1.433       .  A
C583        H588   1.075       .  S
C584        C585   1.436       .  A
C585        C586   1.398       .  A
C585        F589   1.345       .  S
C586        H590   1.084       .  S
C591        C596   1.399       .  A
C591        H601   1.083       .  S
C592        C597   1.474       .  S
C592        C593   1.404       .  A
C593        F598   1.358       .  S
C594        C595   1.406       .  A
C594        H599   1.083       .  S
C595        C596   1.411       .  A
C596        F600   1.357       .  S
C597        C602   1.393       .  A
C597        C606   1.394       .  A
C602        C603   1.391       .  A
C602        F607   1.359       .  S
C603        C604   1.427       .  A
C603        H608   1.071       .  S
C604        C605   1.433       .  A
C605        C606   1.399       .  A
C605        F609   1.351       .  S
C606        H610   1.084       .  S
C611        C612   1.393       .  A
C611        C616   1.394       .  A
C611        H621   1.084       .  S
C612        C617   1.482       .  S
C612        C613   1.396       .  A
C613        C614   1.399       .  A
C613        F618   1.358       .  S
C614        C615   1.420       .  A
C614        H619   1.066       .  S
C615        C616   1.440       .  A
C616        F620   1.356       .  S
C617       C1492   1.406       .  A
C617       C1496   1.402       .  A
C622       C1487   1.406   1_455  A
C622        C623   1.402       .  A
C622        F627   1.357       .  S
C623        C624   1.409       .  A
C623        H628   1.083       .  S
C624        C625   1.411       .  A
C625        C626   1.393   1_455  A
C625        F629   1.357       .  S
C626       C1487   1.402       .  A
C626       H1500   1.083       .  S
H630       C1496   1.083       .  S
C631        C632   1.393       .  A
C631        C636   1.399       .  A
C631        H641   1.084       .  S
C632        C637   1.482       .  S
C632        C633   1.396       .  A
C633        C634   1.394       .  A
C633        F638   1.358       .  S
C634        C635   1.431       .  A
C634        H639   1.075       .  S
C635        C636   1.440       .  A
C636        F640   1.349       .  S
C637        C642   1.406       .  A
C637        C646   1.402       .  A
C642        C643   1.401       .  A
C642        F647   1.357       .  S
C643        C644   1.408       .  A
C643        H648   1.083       .  S
C644        C645   1.411       .  A
C645        C646   1.393       .  A
C645        F649   1.358       .  S
C646        H650   1.083       .  S
C651        C652   1.395       .  A
C651        C656   1.396       .  A
C651        H661   1.084       .  S
C652        C657   1.485       .  S
C652        C653   1.396       .  A
C653        C654   1.397       .  A
C653        F658   1.358       .  S
C654        C655   1.426       .  A
C654        H659   1.068       .  S
C655        C656   1.436       .  A
C656        F660   1.356       .  S
C657        C662   1.406       .  A
C657        C666   1.405       .  A
C662        C663   1.396       .  A
C662        F667   1.358       .  S
C663        C664   1.406       .  A
C663        H668   1.083       .  S
C664        C665   1.410       .  A
C665        C666   1.402       .  A
C665        F669   1.357       .  S
C666        H670   1.083       .  S
C671        C672   1.393       .  A
C671        C676   1.403       .  A
C671        H681   1.084       .  S
C672        C677   1.481       .  S
C672        C673   1.391       .  A
C673        C674   1.396       .  A
C673        F678   1.358       .  S
C674        C675   1.431       .  A
C674        H679   1.069       .  S
C675        C676   1.434       .  A
C676        F680   1.343       .  S
C677        C682   1.402       .  A
C677        C686   1.403       .  A
C682        C683   1.402       .  A
C682        F687   1.357       .  S
C683        C684   1.411       .  A
C683        H688   1.083       .  S
C684        C685   1.411       .  A
C685        C686   1.399       .  A
C685        F689   1.357       .  S
C686        H690   1.084       .  S
C691        C692   1.396       .  A
C691        C696   1.400       .  A
C691        H701   1.084       .  S
C692        C697   1.484       .  S
C692        C693   1.397       .  A
C693        C694   1.395       .  A
C693        F698   1.358       .  S
C694        C695   1.426       .  A
C694        H699   1.079       .  S
C695        C696   1.429       .  A
C696        F700   1.346       .  S
C697        C702   1.406       .  A
C697        C706   1.404       .  A
C702        C703   1.398       .  A
C702        F707   1.357       .  S
C703        C704   1.407       .  A
C703        H708   1.083       .  S
C704        C705   1.411       .  A
C705        C706   1.399       .  A
C705        F709   1.358       .  S
C706        H710   1.083       .  S
C711        C712   1.408       .  A
C711        C716   1.405       .  A
C711        H721   1.083       .  S
C712        C717   1.491       .  S
C712        C713   1.409       .  A
C713        C714   1.396       .  A
C713        F718   1.357       .  S
C714        C715   1.402       .  A
C714        H719   1.083       .  S
C715        C716   1.408       .  A
C716        F720   1.358       .  S
C717        C722   1.400       .  A
C717        C726   1.399       .  A
C722        C723   1.400       .  A
C722        F727   1.358       .  S
C723        C724   1.422       .  A
C723        H728   1.069       .  S
C724        C725   1.431       .  A
C725        C726   1.398       .  A
C725        F729   1.357       .  S
C726        H730   1.083       .  S
C731        C732   1.402       .  A
C731        C736   1.397       .  A
C731        H741   1.084       .  S
C732        C737   1.483       .  S
C732        C733   1.406       .  A
C733        C734   1.402       .  A
C733        F738   1.357       .  S
C734        C735   1.409       .  A
C734        H739   1.083       .  S
C735        C736   1.409       .  A
C736        F740   1.357       .  S
C737        C742   1.398       .  A
C737        C746   1.395       .  A
C742        C743   1.401       .  A
C742        F747   1.357       .  S
C743        C744   1.418       .  A
C743        H748   1.071       .  S
C744        C745   1.432       .  A
C745        C746   1.397       .  A
C745        F749   1.355       .  S
C746        H750   1.084       .  S
C751        C752   1.403       .  A
C751        C756   1.396       .  A
C751        H761   1.083       .  S
C752        C757   1.482       .  S
C752        C753   1.405       .  A
C753        C754   1.400       .  A
C753        F758   1.357       .  S
C754        C755   1.409       .  A
C754        H759   1.083       .  S
C755        C756   1.411       .  A
C756        F760   1.357       .  S
C757        C762   1.394       .  A
C757        C766   1.392       .  A
C762        C763   1.395       .  A
C762        F767   1.358       .  S
C763        C764   1.432       .  A
C763       H1638   1.074       .  S
C764        C895   1.605       .  S
C764        C765   1.438       .  A
C765        C766   1.399       .  A
C765        F769   1.342       .  S
C766        H770   1.084       .  S
H768       C1633   1.074   1_455  S
C771        C772   1.402       .  A
C771        C776   1.393       .  A
C771        H781   1.083       .  S
C772        C777   1.483       .  S
C772        C773   1.406       .  A
C773        C774   1.402       .  A
C773        F778   1.357       .  S
C774        C775   1.409       .  A
C774        H779   1.083       .  S
C775        C776   1.411       .  A
C776        F780   1.358       .  S
C777        C782   1.395       .  A
C777        C786   1.394       .  A
C782        C783   1.392       .  A
C782        F787   1.359       .  S
C783        C784   1.430       .  A
C783        H788   1.074       .  S
C784        C785   1.436       .  A
C785        C786   1.402       .  A
C785        F789   1.343       .  S
C786        H790   1.084       .  S
C791        C792   1.401       .  A
C791        C796   1.394       .  A
C791        H801   1.084       .  S
C792        C797   1.477       .  S
C792        C793   1.403       .  A
C793        C794   1.400       .  A
C793        F798   1.357       .  S
C794        C795   1.408       .  A
C794        H799   1.083       .  S
C795        C796   1.412       .  A
C796        F800   1.358       .  S
C797        C802   1.393       .  A
C797        C806   1.391       .  A
C802        C803   1.394       .  A
C802        F807   1.358       .  S
C803        C804   1.431       .  A
C804       C1330   1.600       .  S
C804        C805   1.437       .  A
C805        C806   1.398       .  A
C805       F1679   1.344       .  S
C806        H810   1.084       .  S
F809       C1675   1.344   1_455  S
C811        C812   1.397       .  A
C811        C816   1.396       .  A
C811        H821   1.083       .  S
C812        C817   1.484       .  S
C812        C813   1.401       .  A
C813        C814   1.395       .  A
C813        F818   1.358       .  S
C814        C815   1.417       .  A
C814        H819   1.070       .  S
C815        C816   1.432       .  A
C816        F820   1.358       .  S
C817        C822   1.410       .  A
C817        C826   1.406       .  A
C822        C823   1.397       .  A
C822        F827   1.358       .  S
C823        C824   1.401       .  A
C823        H828   1.084       .  S
C824        C825   1.404       .  A
C825        C826   1.397       .  A
C825        F829   1.357       .  S
C826        H830   1.083       .  S
C831        C832   1.397       .  A
C831        C836   1.400       .  A
C831        H841   1.083       .  S
C832        C837   1.475       .  S
C832        C833   1.394       .  A
C833        C834   1.388       .  A
C833        F838   1.358       .  S
C834        C835   1.426       .  A
C834        H839   1.080       .  S
C835        C836   1.426       .  A
C836        F840   1.348       .  S
C837       C1712   1.403   1_455  A
C837        C846   1.402       .  A
C842       C1707   1.403       .  A
C842        C843   1.397       .  A
C842        F847   1.357       .  S
C843        C844   1.408       .  A
C843        H848   1.083       .  S
C844        C845   1.410       .  A
C845       C1716   1.395       .  A
C845        F849   1.357       .  S
C846       C1715   1.395   1_455  A
C846        H850   1.084       .  S
C851        C852   1.394       .  A
C851        C856   1.397       .  A
C851        H861   1.084       .  S
C852        C857   1.480       .  S
C852        C853   1.397       .  A
C853        C854   1.398       .  A
C853        F858   1.357       .  S
C854        C855   1.419       .  A
C854        H859   1.073       .  S
C855        C856   1.435       .  A
C856        F860   1.354       .  S
C857        C862   1.405       .  A
C862        F867   1.357       .  S
C863        C864   1.407       .  A
C863        H868   1.083       .  S
C864        C865   1.410       .  A
C865        C866   1.397       .  A
C865        F869   1.358       .  S
C866        H870   1.084       .  S
O871        C887   1.273       .  A
O871       Zn877   2.016       .  S
C872        O888   1.274       .  A
C872        O885   1.273       .  A
C872       C1299   1.483       .  S
O873        C886   1.276       .  A
O873       Cd880   2.080       .  S
O874        C892   1.273       .  A
O874       Cd883   2.053       .  S
O875        C889   1.274       .  A
O875       Cd879   2.063       .  S
O876        C887   1.273       .  A
O876       Cd879   2.064       .  S
Zn877       O888   2.020       .  S
Zn877       O890   1.995       .  S
Zn877       O882   1.936       .  S
O878        C889   1.273       .  A
O878       Cd883   2.058       .  S
Cd879       O881   2.068       .  S
Cd879       O882   1.994       .  S
Cd880       O884   2.081       .  S
Cd880       O893   2.083       .  S
Cd880       O882   2.010       .  S
O881        C891   1.276       .  A
O882       Cd883   1.990       .  S
Cd883       O885   2.060       .  S
O884        C891   1.277       .  A
C886        O890   1.272       .  A
C886       C1210   1.485       .  S
C887       C1259   1.469       .  S
C889       C1279   1.481       .  S
C891       C1190   1.488       .  S
C892        O893   1.277       .  A
C892       C1230   1.485       .  S
C894        C920   1.695       .  S
C894       C1250   1.590       .  S
C894       C1270   1.579       .  S
C894       C1290   1.585       .  S
C895        C944   1.715   1_566  S
C895       C1219   1.602   1_565  S
O896        C912   1.276       .  A
O896      Zn1337   2.028       .  S
C897        O913   1.276       .  A
C897        O910   1.275       .  A
C897       C1150   1.479       .  S
O898        C911   1.276       .  A
O898      Cd1340   2.076   1_645  S
O899        C917   1.274       .  A
O899       Cd908   2.058       .  S
O900        C914   1.276       .  A
O901        C912   1.274       .  A
O901       Cd904   2.065       .  S
Zn902      O1331   2.027   1_545  S
Zn902       O915   2.040       .  S
Zn902      O1342   1.953   1_645  S
O903        C914   1.275       .  A
O903      Cd1343   2.077       .  S
Cd904       O906   2.067       .  S
Cd904       O907   1.997   1_655  S
Cd905      O1333   2.075   1_455  S
Cd905       O909   2.082   1_455  S
Cd905       O907   2.013       .  S
O906        C916   1.275       .  A
O907      Zn1337   1.953   1_455  S
Cd908      O1338   2.079   1_545  S
Cd908       O910   2.067       .  S
O909        C916   1.276       .  A
C911        O915   1.278       .  A
C911       C1119   1.492       .  S
C912       C1139   1.487       .  S
C914       C1170   1.486       .  S
C916       C1099   1.483       .  S
C917        O918   1.276       .  A
C917       C1079   1.485       .  S
C919        C945   1.707       .  S
C919       C1070   1.599       .  S
C919       C1090   1.595       .  S
C919       C1110   1.605       .  S
C920       C1130   1.587       .  S
C920       C1159   1.600       .  S
C920       C1179   1.583       .  S
O921        C937   1.276       .  A
O921       Zn927   2.025       .  S
C922        O938   1.274       .  A
C922        O935   1.275       .  A
C922        C999   1.487       .  S
O923        C936   1.275       .  A
O923       Cd930   2.066       .  S
O924        C942   1.274       .  A
O924       Cd933   2.056       .  S
O925        C939   1.274       .  A
O925       Cd929   2.058       .  S
O926        C937   1.273       .  A
O926       Cd929   2.061       .  S
Zn927       O938   2.027       .  S
Zn927       O940   2.008       .  S
Zn927       O932   1.942       .  S
O928        C939   1.274       .  A
O928       Cd933   2.065       .  S
Cd929       O931   2.062       .  S
Cd929       O932   1.989       .  S
Cd930       O934   2.077       .  S
Cd930       O943   2.080       .  S
Cd930       O932   2.008       .  S
O931        C941   1.274       .  A
O932       Cd933   1.990       .  S
Cd933       O935   2.067       .  S
O934        C941   1.275       .  A
C936        O940   1.275       .  A
C936       C1030   1.481       .  S
C937        C959   1.484       .  S
C939        C970   1.478       .  S
C941       C1010   1.486       .  S
C942        O943   1.276       .  A
C942       C1059   1.485       .  S
C944        C979   1.601       .  S
C944       C1425   1.602   1_545  S
C945       C1019   1.604       .  S
C945       C1039   1.580       .  S
C945       C1050   1.596       .  S
C946        C947   1.392       .  A
C946        C951   1.397       .  A
C946        H956   1.084       .  S
C947        C952   1.480       .  S
C947        C948   1.394       .  A
C948        C949   1.395       .  A
C948        F953   1.358       .  S
C949        C950   1.430       .  A
C949        H954   1.075       .  S
C950        C951   1.438       .  A
C951       F1390   1.343       .  S
C952        C957   1.406       .  A
C952        C961   1.402       .  A
F955       C1386   1.344   1_545  S
C957        C958   1.397       .  A
C957        F962   1.358       .  S
C958        C959   1.406       .  A
C958        H963   1.083       .  S
C959        C960   1.411       .  A
C960        C961   1.398       .  A
C960        F964   1.357       .  S
C961        H965   1.083       .  S
C966        C967   1.402       .  A
C966        C971   1.398       .  A
C966        H976   1.083       .  S
C967        C972   1.475       .  S
C967        C968   1.404       .  A
C968        C969   1.394       .  A
C968        F973   1.358       .  S
C969        C970   1.406       .  A
C969        H974   1.083       .  S
C970        C971   1.410       .  A
C971        F975   1.357       .  S
C972        C977   1.391       .  A
C972        C981   1.393       .  A
C977        C978   1.392       .  A
C977        F982   1.359       .  S
C978        C979   1.432       .  A
C979        C980   1.435       .  A
C980        C981   1.398       .  A
C980        F984   1.344       .  S
C981        H985   1.084       .  S
C986        C987   1.395       .  A
C986        C991   1.398       .  A
C986        H996   1.083       .  S
C987        C992   1.487       .  S
C987        C988   1.395       .  A
C988        C989   1.396       .  A
C988        F993   1.358       .  S
C989        C990   1.432       .  A
C989       H1429   1.074       .  S
C990       C1379   1.602       .  S
C990        C991   1.434       .  A
C991        F995   1.343       .  S
C992        C997   1.407       .  A
C992       C1001   1.405       .  A
H994       C1424   1.074       .  S
C997        C998   1.396       .  A
C997       F1002   1.358       .  S
C998        C999   1.406       .  A
C998       H1003   1.083       .  S
C999       C1000   1.411       .  A
C1000      C1001   1.401       .  A
C1000      F1004   1.357       .  S
C1001      H1005   1.083       .  S
C1006      C1007   1.403       .  A
C1006      C1011   1.401       .  A
C1006      H1016   1.083       .  S
C1007      C1012   1.480       .  S
C1007      C1008   1.405       .  A
C1008      C1009   1.395       .  A
C1008      F1013   1.358       .  S
C1009      C1010   1.407       .  A
C1009      H1014   1.083       .  S
C1010      C1011   1.412       .  A
C1011      F1015   1.357       .  S
C1012      C1017   1.394       .  A
C1012      C1021   1.391       .  A
C1017      C1018   1.395       .  A
C1017      F1022   1.358       .  S
C1018      C1019   1.433       .  A
C1018      H1023   1.075       .  S
C1019      C1020   1.435       .  A
C1020      C1021   1.398       .  A
C1020      F1024   1.345       .  S
C1021      H1025   1.084       .  S
C1026      C1462   1.401       .  A
C1026      C1031   1.399       .  A
C1026      H1036   1.083       .  S
C1027      C1032   1.474       .  S
C1027      C1461   1.401   1_545  A
C1027      C1028   1.404       .  A
C1028      C1464   1.393   1_545  A
C1028      F1033   1.358       .  S
C1029      C1463   1.393       .  A
C1029      C1030   1.406       .  A
C1029      H1034   1.083       .  S
C1030      C1031   1.412       .  A
C1031      F1035   1.357       .  S
C1032      C1037   1.393       .  A
C1032      C1041   1.395       .  A
C1037      C1038   1.391       .  A
C1037      F1042   1.359       .  S
C1038      C1039   1.427       .  A
C1038      H1043   1.071       .  S
C1039      C1040   1.433       .  A
C1040      C1041   1.399       .  A
C1040      F1044   1.351       .  S
C1041      H1045   1.084       .  S
C1046      C1047   1.393       .  A
C1046      C1051   1.394       .  A
C1046      H1056   1.084       .  S
C1047      C1052   1.481       .  S
C1047      C1048   1.396       .  A
C1048      C1049   1.398       .  A
C1048      F1053   1.358       .  S
C1049      C1050   1.420       .  A
C1049      H1054   1.066       .  S
C1050      C1051   1.440       .  A
C1051      F1055   1.356       .  S
C1057      C1058   1.402       .  A
C1057      F1062   1.357       .  S
C1058      C1059   1.409       .  A
C1058      H1063   1.083       .  S
C1059      C1060   1.411       .  A
C1060      C1061   1.392       .  A
C1060      F1064   1.357       .  S
C1066      C1067   1.393       .  A
C1066      C1071   1.399       .  A
C1066      H1076   1.084       .  S
C1067      C1072   1.483       .  S
C1067      C1068   1.396       .  A
C1068      C1069   1.394       .  A
C1068      F1073   1.358       .  S
C1069      C1070   1.431       .  A
C1069      H1074   1.075       .  S
C1070      C1071   1.439       .  A
C1071      F1075   1.349       .  S
C1072      C1077   1.407       .  A
C1072      C1081   1.402       .  A
C1077      C1078   1.401       .  A
C1077      F1082   1.357       .  S
C1078      C1079   1.408       .  A
C1078      H1083   1.083       .  S
C1079      C1080   1.410       .  A
C1080      C1081   1.393       .  A
C1080      F1084   1.358       .  S
C1081      H1085   1.083       .  S
C1086      C1087   1.395       .  A
C1086      C1091   1.396       .  A
C1086      H1096   1.084       .  S
C1087      C1092   1.483       .  S
C1087      C1088   1.395       .  A
C1088      C1089   1.396       .  A
C1088      F1093   1.358       .  S
C1089      C1090   1.426       .  A
C1089      H1094   1.068       .  S
C1090      C1091   1.436       .  A
C1091      F1095   1.356       .  S
C1092      C1097   1.406       .  A
C1092      C1101   1.405       .  A
C1097      C1098   1.396       .  A
C1097      F1102   1.358       .  S
C1098      C1099   1.405       .  A
C1098      H1103   1.083       .  S
C1099      C1100   1.409       .  A
C1100      C1101   1.401       .  A
C1100      F1104   1.357       .  S
C1101      H1105   1.083       .  S
C1106      C1107   1.392       .  A
C1106      C1111   1.403       .  A
C1106      H1116   1.084       .  S
C1107      C1112   1.480       .  S
C1107      C1108   1.391       .  A
C1108      C1109   1.396       .  A
C1108      F1113   1.358       .  S
C1109      C1110   1.432       .  A
C1109      H1114   1.069       .  S
C1110      C1111   1.434       .  A
C1111      F1115   1.343       .  S
C1112      C1117   1.402       .  A
C1112      C1121   1.402       .  A
C1117      C1118   1.402       .  A
C1117      F1122   1.357       .  S
C1118      C1119   1.411       .  A
C1118      H1123   1.083       .  S
C1119      C1120   1.411       .  A
C1120      C1121   1.399       .  A
C1120      F1124   1.357       .  S
C1121      H1125   1.084       .  S
C1126      C1127   1.396       .  A
C1126      C1131   1.400       .  A
C1126      H1136   1.083       .  S
C1127      C1132   1.484       .  S
C1127      C1128   1.397       .  A
C1128      C1129   1.394       .  A
C1128      F1133   1.358       .  S
C1129      C1130   1.426       .  A
C1129      H1134   1.079       .  S
C1130      C1131   1.429       .  A
C1131      F1135   1.346       .  S
C1132      C1137   1.406       .  A
C1132      C1141   1.404       .  A
C1137      C1138   1.398       .  A
C1137      F1142   1.357       .  S
C1138      C1139   1.407       .  A
C1138      H1143   1.083       .  S
C1139      C1140   1.412       .  A
C1140      C1141   1.399       .  A
C1140      F1144   1.358       .  S
C1141      H1145   1.083       .  S
C1146      C1147   1.408       .  A
C1146      C1151   1.405       .  A
C1146      H1156   1.083       .  S
C1147      C1152   1.492       .  S
C1147      C1148   1.409       .  A
C1148      C1149   1.396       .  A
C1148      F1153   1.357       .  S
C1149      C1150   1.402       .  A
C1149      H1154   1.083       .  S
C1150      C1151   1.408       .  A
C1151      F1155   1.358       .  S
C1152      C1157   1.401       .  A
C1152      C1161   1.399       .  A
C1157      C1158   1.400       .  A
C1157      F1162   1.358       .  S
C1158      C1159   1.422       .  A
C1158      H1163   1.069       .  S
C1159      C1160   1.431       .  A
C1160      C1161   1.398       .  A
C1160      F1164   1.357       .  S
C1161      H1165   1.083       .  S
C1166      C1167   1.403       .  A
C1166      C1171   1.397       .  A
C1166      H1176   1.084       .  S
C1167      C1172   1.482       .  S
C1167      C1168   1.406       .  A
C1168      C1169   1.402       .  A
C1168      F1173   1.357       .  S
C1169      C1170   1.409       .  A
C1169      H1174   1.083       .  S
C1170      C1171   1.409       .  A
C1171      F1175   1.357       .  S
C1172      C1177   1.398       .  A
C1172      C1181   1.395       .  A
C1177      C1178   1.401       .  A
C1177      F1182   1.357       .  S
C1178      C1179   1.417       .  A
C1178      H1183   1.071       .  S
C1179      C1180   1.432       .  A
C1180      C1181   1.397       .  A
C1180      F1184   1.355       .  S
C1181      H1185   1.084       .  S
C1186      C1187   1.403       .  A
C1186      C1191   1.396       .  A
C1186      H1196   1.083       .  S
C1187      C1192   1.483       .  S
C1187      C1188   1.405       .  A
C1188      C1189   1.401       .  A
C1188      F1193   1.357       .  S
C1189      C1190   1.409       .  A
C1189      H1194   1.083       .  S
C1190      C1191   1.411       .  A
C1191      F1195   1.357       .  S
C1192      C1197   1.395       .  A
C1192      C1201   1.392       .  A
C1197      C1198   1.395   1_655  A
C1197      F1202   1.358   1_655  S
C1198      C1199   1.432   1_455  A
C1199      C1200   1.438       .  A
C1200      C1201   1.399       .  A
C1200      F1204   1.342       .  S
C1201      H1205   1.084       .  S
C1206      C1207   1.402       .  A
C1206      C1211   1.393       .  A
C1206      H1216   1.083       .  S
C1207      C1212   1.482       .  S
C1207      C1208   1.406       .  A
C1208      C1209   1.401       .  A
C1208      F1213   1.357       .  S
C1209      C1210   1.408       .  A
C1209      H1214   1.083       .  S
C1210      C1211   1.411       .  A
C1211      F1215   1.358       .  S
C1212      C1217   1.395       .  A
C1212      C1221   1.394       .  A
C1217      C1218   1.392       .  A
C1217      F1222   1.359       .  S
C1218      C1219   1.430       .  A
C1218      H1223   1.074       .  S
C1219      C1220   1.436       .  A
C1220      C1221   1.401       .  A
C1220      F1224   1.343   1_545  S
C1221      H1225   1.084       .  S
C1226      C1227   1.401       .  A
C1226      C1231   1.394       .  A
C1226      H1236   1.084       .  S
C1227      C1232   1.477       .  S
C1227      C1228   1.403       .  A
C1228      C1229   1.400       .  A
C1228      F1233   1.357       .  S
C1229      C1230   1.408       .  A
C1229      H1234   1.083       .  S
C1230      C1231   1.412       .  A
C1231      F1235   1.358       .  S
C1232      C1237   1.393       .  A
C1232      C1241   1.391       .  A
C1237      C1238   1.394   1_545  A
C1237      F1242   1.358   1_545  S
C1238      C1239   1.430   1_565  A
C1238      H1678   1.073       .  S
C1239      C1240   1.437       .  A
C1240      C1241   1.398       .  A
C1241      H1245   1.084       .  S
H1243      C1673   1.073       .  S
C1246      C1247   1.398       .  A
C1246      C1251   1.396       .  A
C1246      H1256   1.083       .  S
C1247      C1252   1.485       .  S
C1247      C1248   1.402       .  A
C1248      C1249   1.395       .  A
C1248      F1253   1.357       .  S
C1249      C1250   1.417       .  A
C1249      H1254   1.070       .  S
C1250      C1251   1.432       .  A
C1251      F1255   1.358       .  S
C1252      C1257   1.410       .  A
C1252      C1261   1.406       .  A
C1257      C1258   1.397       .  A
C1257      F1262   1.358       .  S
C1258      C1259   1.401       .  A
C1258      H1263   1.084       .  S
C1259      C1260   1.404       .  A
C1260      C1261   1.397       .  A
C1260      F1264   1.357       .  S
C1261      H1265   1.083       .  S
C1266      C1267   1.397       .  A
C1266      C1271   1.400       .  A
C1266      H1276   1.083       .  S
C1267      C1272   1.474       .  S
C1267      C1268   1.394       .  A
C1268      C1269   1.388       .  A
C1268      F1273   1.358       .  S
C1269      C1270   1.425       .  A
C1269      H1274   1.080       .  S
C1270      C1271   1.426       .  A
C1271      F1275   1.348       .  S
C1272      C1281   1.402       .  A
C1277      C1278   1.397       .  A
C1277      F1282   1.357   1_655  S
C1278      C1279   1.408       .  A
C1278      H1283   1.083       .  S
C1279      C1280   1.410       .  A
C1280      F1284   1.358       .  S
C1281      H1285   1.084       .  S
C1286      C1287   1.394       .  A
C1286      C1291   1.396       .  A
C1286      H1296   1.084       .  S
C1287      C1292   1.480       .  S
C1287      C1288   1.397       .  A
C1288      C1289   1.397       .  A
C1288      F1293   1.357       .  S
C1289      C1290   1.418       .  A
C1289      H1294   1.073       .  S
C1290      C1291   1.435       .  A
C1291      F1295   1.354       .  S
C1292      C1297   1.405       .  A
C1292      C1736   1.403       .  A
C1297      C1733   1.398       .  A
C1297      F1302   1.357       .  S
C1298      C1732   1.398   1_545  A
C1298      C1299   1.407       .  A
C1298      H1303   1.083       .  S
C1299      C1300   1.410       .  A
C1300      C1301   1.397   1_545  A
C1300      F1304   1.358       .  S
C1301      C1727   1.403       .  A
C1301      H1305   1.084       .  S
O1306      C1322   1.274       .  A
O1306     Zn1312   2.016       .  S
C1307      O1323   1.274       .  A
C1307      O1320   1.273       .  A
C1307      C1734   1.483       .  S
O1308      C1321   1.276       .  A
O1308     Cd1315   2.081       .  S
O1309      C1327   1.273       .  A
O1309     Cd1318   2.053       .  S
O1310      C1324   1.274       .  A
O1310     Cd1314   2.064       .  S
O1311      C1322   1.273       .  A
O1311     Cd1314   2.063       .  S
Zn1312     O1323   2.020       .  S
Zn1312     O1325   1.997       .  S
Zn1312     O1317   1.936       .  S
O1313      C1324   1.273       .  A
O1313     Cd1318   2.061       .  S
Cd1314     O1316   2.068       .  S
Cd1314     O1317   1.994       .  S
Cd1315     O1319   2.080       .  S
Cd1315     O1328   2.083       .  S
Cd1315     O1317   2.010       .  S
O1316      C1326   1.276       .  A
O1317     Cd1318   1.990       .  S
Cd1318     O1320   2.059       .  S
O1319      C1326   1.277       .  A
C1321      O1325   1.272       .  A
C1321      C1645   1.485       .  S
C1322      C1694   1.469       .  S
C1324      C1714   1.482       .  S
C1326      C1625   1.488       .  S
C1327      O1328   1.277       .  A
C1327      C1665   1.485       .  S
C1329      C1355   1.695       .  S
C1329      C1685   1.590       .  S
C1329      C1705   1.579       .  S
C1329      C1725   1.585       .  S
C1330      C1379   1.715   1_556  S
C1330      C1654   1.602       .  S
O1331      C1347   1.276       .  A
C1332      O1348   1.276       .  A
C1332      O1345   1.274       .  A
C1332      C1585   1.479       .  S
O1333      C1346   1.276       .  A
O1334      C1352   1.274       .  A
O1334     Cd1343   2.058       .  S
O1335      C1349   1.276       .  A
O1336      C1347   1.274       .  A
O1336     Cd1339   2.066       .  S
Zn1337     O1350   2.042       .  S
O1338      C1349   1.275       .  A
Cd1339     O1341   2.068       .  S
Cd1339     O1342   1.996   1_655  S
Cd1340     O1344   2.084   1_455  S
Cd1340     O1342   2.013       .  S
O1341      C1351   1.276       .  A
Cd1343     O1345   2.067       .  S
O1344      C1351   1.276       .  A
C1346      O1350   1.278       .  A
C1346      C1554   1.492       .  S
C1347      C1574   1.486       .  S
C1349      C1605   1.487       .  S
C1351      C1534   1.484       .  S
C1352      O1353   1.276       .  A
C1352      C1514   1.485       .  S
C1354      C1380   1.707       .  S
C1354      C1505   1.600       .  S
C1354      C1525   1.595       .  S
C1354      C1545   1.604       .  S
C1355      C1565   1.587       .  S
C1355      C1594   1.601       .  S
C1355      C1614   1.583       .  S
O1356      C1372   1.276       .  A
O1356     Zn1362   2.026       .  S
C1357      O1373   1.274       .  A
C1357      O1370   1.275       .  A
C1357      C1434   1.486       .  S
O1358      C1371   1.275       .  A
O1358     Cd1365   2.066       .  S
O1359      C1377   1.274       .  A
O1359     Cd1368   2.056       .  S
O1360      C1374   1.274       .  A
O1360     Cd1364   2.058       .  S
O1361      C1372   1.273       .  A
O1361     Cd1364   2.061       .  S
Zn1362     O1373   2.025       .  S
Zn1362     O1375   2.007       .  S
Zn1362     O1367   1.942       .  S
O1363      C1374   1.274       .  A
O1363     Cd1368   2.064       .  S
Cd1364     O1366   2.061       .  S
Cd1364     O1367   1.989       .  S
Cd1365     O1369   2.077       .  S
Cd1365     O1378   2.081       .  S
Cd1365     O1367   2.007       .  S
O1366      C1376   1.274       .  A
O1367     Cd1368   1.989       .  S
Cd1368     O1370   2.066       .  S
O1369      C1376   1.275       .  A
C1371      O1375   1.275       .  A
C1371      C1465   1.481       .  S
C1372      C1394   1.484       .  S
C1374      C1405   1.479       .  S
C1376      C1445   1.486       .  S
C1377      O1378   1.276       .  A
C1377      C1494   1.486       .  S
C1379      C1414   1.601       .  S
C1380      C1454   1.604       .  S
C1380      C1474   1.580       .  S
C1380      C1485   1.596       .  S
C1381      C1382   1.392       .  A
C1381      C1386   1.397       .  A
C1381      H1391   1.084       .  S
C1382      C1387   1.480       .  S
C1382      C1383   1.394       .  A
C1383      C1384   1.395       .  A
C1383      F1388   1.358       .  S
C1384      C1385   1.430       .  A
C1384      H1389   1.074       .  S
C1385      C1386   1.438       .  A
C1387      C1392   1.406       .  A
C1387      C1396   1.402       .  A
C1392      C1393   1.397       .  A
C1392      F1397   1.358       .  S
C1393      C1394   1.406       .  A
C1393      H1398   1.083       .  S
C1394      C1395   1.411       .  A
C1395      C1396   1.398       .  A
C1395      F1399   1.357       .  S
C1396      H1400   1.083       .  S
C1401      C1402   1.402       .  A
C1401      C1406   1.398       .  A
C1401      H1411   1.083       .  S
C1402      C1407   1.475       .  S
C1402      C1403   1.404       .  A
C1403      C1404   1.394       .  A
C1403      F1408   1.358       .  S
C1404      C1405   1.406       .  A
C1404      H1409   1.083       .  S
C1405      C1406   1.410       .  A
C1406      F1410   1.357       .  S
C1407      C1412   1.391       .  A
C1407      C1416   1.393       .  A
C1412      C1413   1.392       .  A
C1412      F1417   1.359       .  S
C1413      C1414   1.432       .  A
C1414      C1415   1.436       .  A
C1415      C1416   1.398       .  A
C1415      F1419   1.343       .  S
C1416      H1420   1.084       .  S
C1421      C1422   1.395       .  A
C1421      C1426   1.398       .  A
C1421      H1431   1.083       .  S
C1422      C1427   1.486       .  S
C1422      C1423   1.395       .  A
C1423      C1424   1.396   1_565  A
C1423      F1428   1.358   1_565  S
C1424      C1425   1.432   1_545  A
C1425      C1426   1.434       .  A
C1426      F1430   1.342       .  S
C1427      C1432   1.407       .  A
C1427      C1436   1.405       .  A
C1432      C1433   1.396       .  A
C1432      F1437   1.358       .  S
C1433      C1434   1.406       .  A
C1433      H1438   1.083       .  S
C1434      C1435   1.411       .  A
C1435      C1436   1.401       .  A
C1435      F1439   1.357       .  S
C1436      H1440   1.083       .  S
C1441      C1442   1.403       .  A
C1441      C1446   1.401       .  A
C1441      H1451   1.083       .  S
C1442      C1447   1.481       .  S
C1442      C1443   1.405       .  A
C1443      C1444   1.395       .  A
C1443      F1448   1.358       .  S
C1444      C1445   1.407       .  A
C1444      H1449   1.083       .  S
C1445      C1446   1.411       .  A
C1446      F1450   1.357       .  S
C1447      C1452   1.394       .  A
C1447      C1456   1.392       .  A
C1452      C1453   1.395       .  A
C1452      F1457   1.358       .  S
C1453      C1454   1.433       .  A
C1453      H1458   1.075       .  S
C1454      C1455   1.436       .  A
C1455      C1456   1.398       .  A
C1455      F1459   1.345       .  S
C1456      H1460   1.084       .  S
C1461      C1466   1.399       .  A
C1461      H1471   1.083       .  S
C1462      C1467   1.474       .  S
C1462      C1463   1.404       .  A
C1463      F1468   1.358       .  S
C1464      C1465   1.406       .  A
C1464      H1469   1.083       .  S
C1465      C1466   1.411       .  A
C1466      F1470   1.357       .  S
C1467      C1472   1.393       .  A
C1467      C1476   1.394       .  A
C1472      C1473   1.391       .  A
C1472      F1477   1.359       .  S
C1473      C1474   1.427       .  A
C1473      H1478   1.071       .  S
C1474      C1475   1.433       .  A
C1475      C1476   1.399       .  A
C1475      F1479   1.351       .  S
C1476      H1480   1.084       .  S
C1481      C1482   1.393       .  A
C1481      C1486   1.394       .  A
C1481      H1491   1.084       .  S
C1482      C1487   1.482       .  S
C1482      C1483   1.396       .  A
C1483      C1484   1.399       .  A
C1483      F1488   1.358       .  S
C1484      C1485   1.420       .  A
C1484      H1489   1.066       .  S
C1485      C1486   1.440       .  A
C1486      F1490   1.356       .  S
C1492      C1493   1.402       .  A
C1492      F1497   1.357       .  S
C1493      C1494   1.409       .  A
C1493      H1498   1.083       .  S
C1494      C1495   1.411       .  A
C1495      C1496   1.393       .  A
C1495      F1499   1.357       .  S
C1501      C1502   1.393       .  A
C1501      C1506   1.399       .  A
C1501      H1511   1.084       .  S
C1502      C1507   1.482       .  S
C1502      C1503   1.396       .  A
C1503      C1504   1.394       .  A
C1503      F1508   1.358       .  S
C1504      C1505   1.431       .  A
C1504      H1509   1.075       .  S
C1505      C1506   1.440       .  A
C1506      F1510   1.349       .  S
C1507      C1512   1.406       .  A
C1507      C1516   1.402       .  A
C1512      C1513   1.401       .  A
C1512      F1517   1.357       .  S
C1513      C1514   1.408       .  A
C1513      H1518   1.083       .  S
C1514      C1515   1.411       .  A
C1515      C1516   1.393       .  A
C1515      F1519   1.358       .  S
C1516      H1520   1.083       .  S
C1521      C1522   1.395       .  A
C1521      C1526   1.396       .  A
C1521      H1531   1.084       .  S
C1522      C1527   1.485       .  S
C1522      C1523   1.396       .  A
C1523      C1524   1.397       .  A
C1523      F1528   1.358       .  S
C1524      C1525   1.426       .  A
C1524      H1529   1.068       .  S
C1525      C1526   1.436       .  A
C1526      F1530   1.356       .  S
C1527      C1532   1.406       .  A
C1527      C1536   1.405       .  A
C1532      C1533   1.396       .  A
C1532      F1537   1.358       .  S
C1533      C1534   1.406       .  A
C1533      H1538   1.083       .  S
C1534      C1535   1.410       .  A
C1535      C1536   1.402       .  A
C1535      F1539   1.357       .  S
C1536      H1540   1.083       .  S
C1541      C1542   1.393       .  A
C1541      C1546   1.403       .  A
C1541      H1551   1.084       .  S
C1542      C1547   1.481       .  S
C1542      C1543   1.391       .  A
C1543      C1544   1.396       .  A
C1543      F1548   1.358       .  S
C1544      C1545   1.431       .  A
C1544      H1549   1.069       .  S
C1545      C1546   1.434       .  A
C1546      F1550   1.343       .  S
C1547      C1552   1.402       .  A
C1547      C1556   1.403       .  A
C1552      C1553   1.402       .  A
C1552      F1557   1.357       .  S
C1553      C1554   1.411       .  A
C1553      H1558   1.083       .  S
C1554      C1555   1.411       .  A
C1555      C1556   1.399       .  A
C1555      F1559   1.357       .  S
C1556      H1560   1.084       .  S
C1561      C1562   1.396       .  A
C1561      C1566   1.400       .  A
C1561      H1571   1.084       .  S
C1562      C1567   1.484       .  S
C1562      C1563   1.397       .  A
C1563      C1564   1.395       .  A
C1563      F1568   1.358       .  S
C1564      C1565   1.426       .  A
C1564      H1569   1.079       .  S
C1565      C1566   1.429       .  A
C1566      F1570   1.346       .  S
C1567      C1572   1.406       .  A
C1567      C1576   1.404       .  A
C1572      C1573   1.398       .  A
C1572      F1577   1.357       .  S
C1573      C1574   1.407       .  A
C1573      H1578   1.083       .  S
C1574      C1575   1.411       .  A
C1575      C1576   1.399       .  A
C1575      F1579   1.358       .  S
C1576      H1580   1.083       .  S
C1581      C1582   1.408       .  A
C1581      C1586   1.405       .  A
C1581      H1591   1.083       .  S
C1582      C1587   1.491       .  S
C1582      C1583   1.409       .  A
C1583      C1584   1.396       .  A
C1583      F1588   1.357       .  S
C1584      C1585   1.402       .  A
C1584      H1589   1.083       .  S
C1585      C1586   1.408       .  A
C1586      F1590   1.358       .  S
C1587      C1592   1.400       .  A
C1587      C1596   1.399       .  A
C1592      C1593   1.400       .  A
C1592      F1597   1.358       .  S
C1593      C1594   1.422       .  A
C1593      H1598   1.069       .  S
C1594      C1595   1.431       .  A
C1595      C1596   1.398       .  A
C1595      F1599   1.357       .  S
C1596      H1600   1.083       .  S
C1601      C1602   1.402       .  A
C1601      C1606   1.397       .  A
C1601      H1611   1.084       .  S
C1602      C1607   1.483       .  S
C1602      C1603   1.406       .  A
C1603      C1604   1.402       .  A
C1603      F1608   1.357       .  S
C1604      C1605   1.409       .  A
C1604      H1609   1.083       .  S
C1605      C1606   1.409       .  A
C1606      F1610   1.357       .  S
C1607      C1612   1.398       .  A
C1607      C1616   1.395       .  A
C1612      C1613   1.401       .  A
C1612      F1617   1.357       .  S
C1613      C1614   1.418       .  A
C1613      H1618   1.071       .  S
C1614      C1615   1.432       .  A
C1615      C1616   1.397       .  A
C1615      F1619   1.355       .  S
C1616      H1620   1.084       .  S
C1621      C1622   1.403       .  A
C1621      C1626   1.396       .  A
C1621      H1631   1.083       .  S
C1622      C1627   1.482       .  S
C1622      C1623   1.405       .  A
C1623      C1624   1.400       .  A
C1623      F1628   1.357       .  S
C1624      C1625   1.409       .  A
C1624      H1629   1.083       .  S
C1625      C1626   1.411       .  A
C1626      F1630   1.357       .  S
C1627      C1632   1.394       .  A
C1627      C1636   1.392       .  A
C1632      C1633   1.395       .  A
C1632      F1637   1.358   1_655  S
C1633      C1634   1.432       .  A
C1634      C1635   1.438       .  A
C1635      C1636   1.399       .  A
C1635      F1639   1.342       .  S
C1636      H1640   1.084       .  S
C1641      C1642   1.402       .  A
C1641      C1646   1.393       .  A
C1641      H1651   1.083       .  S
C1642      C1647   1.483       .  S
C1642      C1643   1.406       .  A
C1643      C1644   1.402       .  A
C1643      F1648   1.357       .  S
C1644      C1645   1.409       .  A
C1644      H1649   1.083       .  S
C1645      C1646   1.411       .  A
C1646      F1650   1.358       .  S
C1647      C1652   1.395       .  A
C1647      C1656   1.394       .  A
C1652      C1653   1.392       .  A
C1652      F1657   1.359       .  S
C1653      C1654   1.430       .  A
C1653      H1658   1.074       .  S
C1654      C1655   1.436       .  A
C1655      C1656   1.402       .  A
C1655      F1659   1.343       .  S
C1656      H1660   1.084       .  S
C1661      C1662   1.401       .  A
C1661      C1666   1.394       .  A
C1661      H1671   1.084       .  S
C1662      C1667   1.477       .  S
C1662      C1663   1.403       .  A
C1663      C1664   1.400       .  A
C1663      F1668   1.357       .  S
C1664      C1665   1.408       .  A
C1664      H1669   1.083       .  S
C1665      C1666   1.412       .  A
C1666      F1670   1.358       .  S
C1667      C1672   1.393       .  A
C1667      C1676   1.391       .  A
C1672      C1673   1.394       .  A
C1672      F1677   1.358       .  S
C1673      C1674   1.431       .  A
C1674      C1675   1.437       .  A
C1675      C1676   1.398       .  A
C1676      H1680   1.084       .  S
C1681      C1682   1.397       .  A
C1681      C1686   1.396       .  A
C1681      H1691   1.083       .  S
C1682      C1687   1.484       .  S
C1682      C1683   1.401       .  A
C1683      C1684   1.395       .  A
C1683      F1688   1.358       .  S
C1684      C1685   1.417       .  A
C1684      H1689   1.070       .  S
C1685      C1686   1.432       .  A
C1686      F1690   1.358       .  S
C1687      C1692   1.410       .  A
C1687      C1696   1.406       .  A
C1692      C1693   1.397       .  A
C1692      F1697   1.358       .  S
C1693      C1694   1.401       .  A
C1693      H1698   1.084       .  S
C1694      C1695   1.404       .  A
C1695      C1696   1.397       .  A
C1695      F1699   1.357       .  S
C1696      H1700   1.083       .  S
C1701      C1702   1.397       .  A
C1701      C1706   1.400       .  A
C1701      H1711   1.083       .  S
C1702      C1707   1.475       .  S
C1702      C1703   1.394       .  A
C1703      C1704   1.388       .  A
C1703      F1708   1.358       .  S
C1704      C1705   1.426       .  A
C1704      H1709   1.080       .  S
C1705      C1706   1.426       .  A
C1706      F1710   1.348       .  S
C1707      C1716   1.402       .  A
C1712      C1713   1.397       .  A
C1712      F1717   1.357   1_655  S
C1713      C1714   1.408       .  A
C1713      H1718   1.083       .  S
C1714      C1715   1.410       .  A
C1715      F1719   1.357       .  S
C1716      H1720   1.084       .  S
C1721      C1722   1.394       .  A
C1721      C1726   1.397       .  A
C1721      H1731   1.084       .  S
C1722      C1727   1.480       .  S
C1722      C1723   1.397       .  A
C1723      C1724   1.398       .  A
C1723      F1728   1.357       .  S
C1724      C1725   1.419       .  A
C1724      H1729   1.073       .  S
C1725      C1726   1.435       .  A
C1726      F1730   1.354       .  S
C1727      C1732   1.405       .  A
C1732      F1737   1.357       .  S
C1733      C1734   1.407       .  A
C1733      H1738   1.083       .  S
C1734      C1735   1.410       .  A
C1735      C1736   1.397       .  A
C1735      F1739   1.358       .  S
C1736      H1740   1.084       .  S
