geometry optimzed in LAMMPS
_audit_creation_date              2020-11-30 
_audit_creation_method            'lammps2cif' 
_symmetry_space_group_name_H-M    'P1' 
_symmetry_Int_Tables_number       1 
_symmetry_cell_setting            triclinic 
loop_ 
_symmetry_equiv_pos_as_xyz 
  x,y,z 
_cell_length_a                    33.98707251 
_cell_length_b                    37.62445638858884 
_cell_length_c                    34.55073731145619 
_cell_angle_alpha                 90.08191950042068 
_cell_angle_beta                  89.75898787037113 
_cell_angle_gamma                 90.05195506305341 
loop_ 
_atom_site_label 
_atom_site_type_symbol 
_atom_site_fract_x 
_atom_site_fract_y 
_atom_site_fract_z 
_atom_site_charge 
N1          N  0.45629613  0.46390210  0.42597044    -0.05500
N2          N  0.44855562  0.44081103  0.39826230    -0.57600
N3          N  0.42789397  0.54421328  0.45600664    -0.05200
N4          N  0.40104031  0.56898495  0.45024486    -0.59800
N5          N  0.45501472  0.54546304  0.42878779    -0.04800
N6          N  0.44704696  0.57117426  0.40392674    -0.57600
N7          N  0.42905728  0.46252111  0.45313128    -0.04500
N8          N  0.40236204  0.43825619  0.44447938    -0.60100
C9          C  0.41500643  0.42480734  0.41024164     0.96700
C10         C  0.41333845  0.58582976  0.41776324     0.96400
N11         N  0.45703024  0.54127444  0.57384394    -0.05700
N12         N  0.45100617  0.56654285  0.59964573    -0.58200
N13         N  0.42882701  0.46024412  0.54505640    -0.03800
N14         N  0.40168441  0.43595550  0.55247641    -0.59500
N15         N  0.45600436  0.46002584  0.57207723    -0.05700
N16         N  0.44773957  0.43576734  0.59846853    -0.58500
N17         N  0.42969003  0.54202831  0.54700465    -0.03500
N18         N  0.40463526  0.56806237  0.55387220    -0.59500
Mn19       Mn  0.42777112  0.50210945  0.50036886     1.18400
C20         C  0.41841333  0.58319400  0.58667751     0.98700
C21         C  0.41398970  0.42069724  0.58577055     0.99400
N22         N  0.54770966  0.54652499  0.42984285    -0.05700
N23         N  0.55242758  0.57423631  0.40696537    -0.62100
N24         N  0.57674964  0.46420146  0.45309557    -0.04500
N25         N  0.60324396  0.43942126  0.44598813    -0.62700
N26         N  0.54977792  0.46454378  0.42590524    -0.05300
N27         N  0.55760918  0.43990379  0.39961680    -0.62300
N28         N  0.57509218  0.54602337  0.45662193    -0.04100
N29         N  0.59900973  0.57343403  0.45246457    -0.63000
Mn30       Mn  0.50235577  0.50505721  0.42640165     1.10700
C31         C  0.58441396  0.59092085  0.42146004     1.00000
C32         C  0.59099625  0.42427570  0.41265772     1.00000
N33         N  0.54904741  0.45975351  0.57092399    -0.05300
N34         N  0.55579298  0.43362335  0.59542445    -0.60600
N35         N  0.57671177  0.54254310  0.54731160    -0.04600
N36         N  0.60332377  0.56712533  0.55494318    -0.57400
N37         N  0.54992795  0.54138015  0.57483613    -0.05900
N38         N  0.55802585  0.56506780  0.60199980    -0.60200
N39         N  0.57662062  0.46087794  0.54411996    -0.04900
N40         N  0.60278172  0.43553639  0.54995824    -0.57400
Mn41       Mn  0.50295038  0.50053758  0.57400221     1.20200
Mn42       Mn  0.57741555  0.50340209  0.50014494     1.10100
Cl43       Cl  0.50258679  0.50265607  0.50021261    -0.85400
C44         C  0.58931349  0.41858681  0.58194686     0.97000
C45         C  0.59126612  0.58117446  0.58902715     0.96800
N46         N  0.95084174  0.46313652  0.92766666    -0.05500
N47         N  0.94409215  0.43709162  0.90276559    -0.57600
N48         N  0.92056379  0.54461965  0.95406949    -0.05200
N49         N  0.89499297  0.57052076  0.94874834    -0.59800
N50         N  0.94751547  0.54494251  0.92665595    -0.04800
N51         N  0.94081250  0.57096251  0.90206041    -0.57600
N52         N  0.92403085  0.46290845  0.95523257    -0.04500
N53         N  0.89878568  0.43676310  0.94981792    -0.60100
C54         C  0.91160609  0.42066748  0.91714175     0.96700
C55         C  0.90809190  0.58679695  0.91625511     0.96400
N56         N  0.94738187  0.54769730  0.07160308    -0.05700
N57         N  0.93890459  0.57310357  0.09678386    -0.58200
N58         N  0.92456703  0.46414584  0.04588159    -0.03800
N59         N  0.90021994  0.43750624  0.05256448    -0.59500
N60         N  0.95178071  0.46566924  0.07275656    -0.05700
N61         N  0.94633520  0.44010436  0.09845545    -0.58500
N62         N  0.91990036  0.54574507  0.04500323    -0.03500
N63         N  0.89214760  0.56956738  0.05161348    -0.59500
Mn64       Mn  0.92120997  0.50432886  0.99996800     1.18400
C65         C  0.90442498  0.58669249  0.08385357     0.98700
C66         C  0.91412876  0.42259902  0.08538185     0.99400
N67         N  0.04011759  0.54874381  0.92417460    -0.05700
N68         N  0.04763388  0.57139104  0.89592754    -0.62100
N69         N  0.07233927  0.46971147  0.95188720    -0.04500
N70         N  0.10146483  0.44788462  0.94279525    -0.62700
N71         N  0.04450728  0.46795943  0.92555704    -0.05300
N72         N  0.05423202  0.44519630  0.89807128    -0.62300
N73         N  0.06736615  0.55094982  0.95103155    -0.04100
N74         N  0.09380146  0.57522804  0.94161590    -0.63000
Mn75       Mn  0.99552815  0.50602925  0.92499461     1.10700
C76         C  0.08103790  0.58795442  0.90727130     1.00000
C77         C  0.08968581  0.43263942  0.90919598     1.00000
N78         N  0.04464879  0.46976593  0.07079352    -0.05300
N79         N  0.05297019  0.44487366  0.09638072    -0.60600
N80         N  0.06782109  0.55245573  0.04314085    -0.04600
N81         N  0.09370661  0.57774601  0.05073969    -0.57400
N82         N  0.04067230  0.55131414  0.07040560    -0.05900
N83         N  0.04761187  0.57574754  0.09697220    -0.60200
N84         N  0.07218384  0.47122089  0.04390924    -0.04900
N85         N  0.10004925  0.44774094  0.05094541    -0.57400
Mn86       Mn  0.99615688  0.50865335  0.07252725     1.20200
Mn87       Mn  0.07090034  0.51119313  0.99760995     1.10100
Cl88       Cl  0.99602101  0.50753490  0.99877793    -0.85400
C89         C  0.08746789  0.43133597  0.08349102     0.97000
C90         C  0.08063641  0.59224681  0.08433103     0.96800
C91         C  0.74342046  0.25414739  0.75647913    -0.01900
N92         N  0.53953513  0.04289557  0.92910542    -0.05500
N93         N  0.54517713  0.06896184  0.90412252    -0.57600
N94         N  0.56873546  0.96125696  0.95473544    -0.05200
N95         N  0.59471683  0.93597100  0.94763372    -0.59800
N96         N  0.54104714  0.96110139  0.92827242    -0.04800
N97         N  0.54769376  0.93576678  0.90257855    -0.57600
N98         N  0.56721313  0.04315441  0.95558910    -0.04500
N99         N  0.59210753  0.06947829  0.94929845    -0.60100
C100        C  0.57798269  0.08546769  0.91716982     0.96700
C101        C  0.58119603  0.92015801  0.91505851     0.96400
N102        N  0.54328176  0.96044818  0.07323462    -0.05700
N103        N  0.55079424  0.93501100  0.09835428    -0.58200
N104        N  0.56923034  0.04239116  0.04663098    -0.03800
N105        N  0.59575721  0.06724709  0.05333717    -0.59500
N106        N  0.54256450  0.04197769  0.07434012    -0.05700
N107        N  0.55057289  0.06652566  0.10053912    -0.58500
N108        N  0.57024493  0.96101118  0.04583229    -0.03500
N109        N  0.59678601  0.93608014  0.05186234    -0.59500
Mn110      Mn  0.56999328  0.00196934  0.00061891     1.18400
C111        C  0.58411147  0.91988613  0.08456576     0.98700
C112        C  0.58371559  0.08227860  0.08693575     0.99400
N113        N  0.44836978  0.95972113  0.93029806    -0.05700
N114        N  0.44094919  0.93514891  0.90401353    -0.62100
N115        N  0.41982787  0.04070055  0.95884405    -0.04500
N116        N  0.39236520  0.06473223  0.95233065    -0.62700
N117        N  0.44644522  0.04114729  0.93104953    -0.05300
N118        N  0.43749779  0.06538962  0.90494364    -0.62300
N119        N  0.42134212  0.95923721  0.95765525    -0.04100
N120        N  0.39489474  0.93441138  0.95039680    -0.63000
Mn121      Mn  0.49388890  0.00125070  0.92853814     1.10700
C122        C  0.40759705  0.91941267  0.91697335     1.00000
C123        C  0.40411494  0.08018472  0.91896379     1.00000
N124        N  0.44924744  0.04076175  0.07649077    -0.05300
N125        N  0.44159422  0.06527929  0.10293293    -0.60600
N126        N  0.42322733  0.95833911  0.04895139    -0.04600
N127        N  0.39826227  0.93209801  0.05545849    -0.57400
N128        N  0.45083786  0.95879750  0.07549352    -0.05900
N129        N  0.44518596  0.93281559  0.10059554    -0.60200
N130        N  0.42125684  0.03996008  0.05031005    -0.04900
N131        N  0.39392580  0.06370994  0.05853258    -0.57400
Mn132      Mn  0.49648917  0.00060023  0.07605336     1.20200
Mn133      Mn  0.42035628  0.99956198  0.00399893     1.10100
Cl134      Cl  0.49516963  0.00092147  0.00230498    -0.85400
C135        C  0.40700453  0.07946239  0.09127897     0.97000
C136        C  0.41237000  0.91621264  0.08767400     0.96800
C137        C  0.24956000  0.75395117  0.74238481    -0.01900
N138        N  0.94662807  0.04681697  0.57353571    -0.05500
N139        N  0.93895429  0.07185755  0.59938004    -0.57600
N140        N  0.92072403  0.96497484  0.54529987    -0.05200
N141        N  0.89467766  0.93959172  0.55127649    -0.59800
N142        N  0.94777562  0.96469946  0.57237523    -0.04800
N143        N  0.94065315  0.93889879  0.59737936    -0.57600
N144        N  0.91938740  0.04643736  0.54659683    -0.04500
N145        N  0.89256042  0.07100660  0.55370508    -0.60100
C146        C  0.90522046  0.08691332  0.58656013     0.96700
C147        C  0.90746835  0.92337300  0.58372229     0.96400
N148        N  0.94870550  0.96581712  0.42740420    -0.05700
N149        N  0.94186964  0.94082676  0.40139954    -0.58200
N150        N  0.92050938  0.04670507  0.45547173    -0.03800
N151        N  0.89405469  0.07161626  0.44940575    -0.59500
N152        N  0.94788148  0.04749697  0.42845723    -0.05700
N153        N  0.94069997  0.07321588  0.40352868    -0.58500
N154        N  0.92142324  0.96526444  0.45451513    -0.03500
N155        N  0.89565000  0.93976405  0.44762615    -0.59500
Mn156      Mn  0.91948017  0.00585560  0.50043922     1.18400
C157        C  0.90879014  0.92463552  0.41444814     0.98700
C158        C  0.90708450  0.08805659  0.41707935     0.99400
N159        N  0.04096542  0.96618132  0.57243076    -0.05700
N160        N  0.04898078  0.94126960  0.59814282    -0.62100
N161        N  0.06669777  0.04901557  0.54629103    -0.04500
N162        N  0.09359487  0.07313666  0.55471040    -0.62700
N163        N  0.03989354  0.04743509  0.57387924    -0.05300
N164        N  0.04830927  0.07013564  0.60180602    -0.62300
N165        N  0.06868484  0.96752026  0.54576276    -0.04100
N166        N  0.09613430  0.94364143  0.55289529    -0.63000
Mn167      Mn  0.99376028  0.00623510  0.57417009     1.10700
C168        C  0.08338351  0.92724428  0.58546386     1.00000
C169        C  0.08147560  0.08630442  0.58917324     1.00000
N170        N  0.04066081  0.04865291  0.42703636    -0.05300
N171        N  0.04857052  0.07245726  0.39998387    -0.60600
N172        N  0.06907252  0.96791502  0.45466147    -0.04600
N173        N  0.09618529  0.94358487  0.44826255    -0.57400
N174        N  0.04205122  0.96690845  0.42753399    -0.05900
N175        N  0.05032556  0.94167032  0.40208134    -0.60200
N176        N  0.06791376  0.04916134  0.45396858    -0.04900
N177        N  0.09508787  0.07309008  0.44552612    -0.57400
Mn178      Mn  0.99473549  0.00718673  0.42644025     1.20200
Mn179      Mn  0.06900822  0.00861262  0.50019134     1.10100
Cl180      Cl  0.99428804  0.00703346  0.50031326    -0.85400
C181        C  0.08255573  0.08764231  0.41192602     0.97000
C182        C  0.08418922  0.92726396  0.41551520     0.96800
C183        C  0.74470296  0.75531689  0.25293467    -0.01900
C184        C  0.24583738  0.25873681  0.24716942    -0.01900
C185        C  0.74970461  0.25321143  0.24641630    -0.01900
C186        C  0.24638718  0.75292697  0.25629002    -0.01900
C187        C  0.24958458  0.25248355  0.75265859    -0.01900
C188        C  0.75019033  0.75483977  0.75212376    -0.01900
C189        C  0.14334282  0.16412276  0.62164110    -0.27600
C190        C  0.15391595  0.15372077  0.65934376     0.06000
C191        C  0.13990291  0.12098619  0.67362433     0.25600
C192        C  0.11534056  0.09973875  0.65091606    -0.12100
C193        C  0.10544714  0.11006523  0.61323336    -0.26000
C194        C  0.11993421  0.14220459  0.59849424     0.36400
C195        C  0.17920331  0.17729035  0.68337178     0.06000
F196        F  0.15099219  0.10887871  0.70891567    -0.19800
H197        H  0.10501561  0.07456721  0.66232482     0.15900
F198        F  0.11069978  0.15273665  0.56208694    -0.23500
H199        H  0.15304327  0.18941873  0.61009807     0.17600
C200        C  0.21226017  0.19414498  0.66724406     0.25600
C201        C  0.23414201  0.21833027  0.68897903    -0.12100
C202        C  0.22409662  0.22658527  0.72781420    -0.26100
C203        C  0.19330319  0.20645013  0.74485855     0.36600
C204        C  0.17038651  0.18333736  0.72256318    -0.27700
F205        F  0.22433986  0.18640016  0.63068455    -0.19800
H206        H  0.25993535  0.22945675  0.67520172     0.15800
F207        F  0.18466568  0.20966553  0.78308818    -0.23500
H208        H  0.14543245  0.17035851  0.73606871     0.17700
C209        C  0.16726894  0.14241929  0.37180697    -0.27600
C210        C  0.14851398  0.16351258  0.34386300     0.06000
C211        C  0.10765073  0.15936175  0.33851013     0.25600
C212        C  0.08638440  0.13468427  0.36069105    -0.12100
C213        C  0.10519660  0.11407627  0.38901813    -0.26000
C214        C  0.14596028  0.11824594  0.39435155     0.36400
C215        C  0.17211934  0.18888578  0.32002500     0.06000
F216        F  0.08806218  0.17959187  0.31242284    -0.19800
H217        H  0.05504767  0.13197386  0.35599622     0.15900
F218        F  0.16564979  0.09813644  0.42045353    -0.23500
H219        H  0.19878220  0.14414239  0.37579497     0.17600
C220        C  0.20121342  0.21042512  0.33695949     0.25600
C221        C  0.22518118  0.23221957  0.31408441    -0.12100
C222        C  0.21966184  0.23488089  0.27364423    -0.26100
C223        C  0.19035889  0.21287504  0.25692363     0.36600
C224        C  0.16717170  0.19035741  0.27977480    -0.27700
F225        F  0.20651371  0.21062753  0.37587911    -0.19800
H226        H  0.24854801  0.24627944  0.32860501     0.15800
F227        F  0.18382254  0.21328992  0.21821082    -0.23500
H228        H  0.14572839  0.17346884  0.26571026     0.17700
C229        C  0.82666770  0.78507074  0.67553554    -0.27600
C230        C  0.81784059  0.82117749  0.67133109     0.06000
C231        C  0.78556629  0.83547444  0.69127055     0.25600
C232        C  0.76367517  0.81441999  0.71658213    -0.12100
C233        C  0.77368224  0.77846763  0.72332936    -0.26000
C234        C  0.80422233  0.76365032  0.70029152     0.36400
C235        C  0.84220526  0.84423799  0.64636788     0.06000
F236        F  0.77563521  0.87017847  0.68686483    -0.19800
H237        H  0.73855216  0.82667923  0.73037511     0.15900
F238        F  0.81366154  0.72870990  0.70312730    -0.23500
H239        H  0.85093383  0.77345857  0.65952803     0.17600
C240        C  0.88187677  0.85069159  0.65520760     0.25600
C241        C  0.90331512  0.87594087  0.63416949    -0.12100
C242        C  0.88561974  0.89475032  0.60376168    -0.26100
C243        C  0.84627300  0.88708477  0.59400815     0.36600
C244        C  0.82483484  0.86218307  0.61533157    -0.27700
F245        F  0.89926287  0.83385723  0.68534685    -0.19800
H246        H  0.93353541  0.88124162  0.64212982     0.15800
F247        F  0.82782866  0.90461472  0.56496978    -0.23500
H248        H  0.79428075  0.85742308  0.60818259     0.17700
C249        C  0.16961620  0.86912294  0.38406057    -0.27600
C250        C  0.15290591  0.84954843  0.35377064     0.06000
C251        C  0.11299234  0.85456426  0.34475302     0.25600
C252        C  0.09055181  0.87963157  0.36514217    -0.12100
C253        C  0.10742331  0.89963102  0.39518676    -0.26000
C254        C  0.14717821  0.89377741  0.40477855     0.36400
C255        C  0.17771259  0.82497238  0.33083011     0.06000
F256        F  0.09613551  0.83611227  0.31537700    -0.19800
H257        H  0.06006609  0.88357118  0.35725168     0.15900
F258        F  0.16490182  0.91257901  0.43338398    -0.23500
H259        H  0.20027296  0.86544436  0.39148611     0.17600
C260        C  0.21109986  0.83752539  0.31119517     0.25600
C261        C  0.23353315  0.81456081  0.28823116    -0.12100
C262        C  0.22276240  0.77846722  0.28328919    -0.26100
C263        C  0.19128580  0.76558468  0.30648809     0.36600
C264        C  0.16848164  0.78877648  0.32891992    -0.27700
F265        F  0.22161507  0.87228272  0.31358341    -0.19800
H266        H  0.25950006  0.82546871  0.27457002     0.15800
F267        F  0.18140907  0.73066686  0.30640142    -0.23500
H268        H  0.14362013  0.77840736  0.34505953     0.17700
C269        C  0.83554778  0.79201280  0.30954197    -0.27600
C270        C  0.81834818  0.82002753  0.33029261     0.06000
C271        C  0.77759705  0.82507361  0.32807063     0.25600
C272        C  0.75493270  0.80365978  0.30383211    -0.12100
C273        C  0.77211504  0.77694734  0.28031072    -0.26000
C274        C  0.81277049  0.76993403  0.28584857     0.36400
C275        C  0.84319555  0.84480874  0.35286928     0.06000
F276        F  0.75982617  0.85171102  0.34809151    -0.19800
H277        H  0.72371100  0.80890219  0.30231494     0.15900
F278        F  0.83072800  0.74110221  0.27025043    -0.23500
H279        H  0.86676977  0.78689683  0.31218836     0.17600
C280        C  0.83604565  0.85103061  0.39239871     0.25600
C281        C  0.85799431  0.87656363  0.41242499    -0.12100
C282        C  0.88754791  0.89617243  0.39345581    -0.26100
C283        C  0.89526896  0.88924392  0.35407868     0.36600
C284        C  0.87331085  0.86372216  0.33412443    -0.27700
F285        F  0.80792998  0.83235397  0.41162296    -0.19800
H286        H  0.85167969  0.88115701  0.44276221     0.15800
F287        F  0.92289238  0.90804633  0.33433888    -0.23500
H288        H  0.87901645  0.85945014  0.30361033     0.17700
C289        C  0.82241768  0.14234220  0.37905075    -0.27600
C290        C  0.84146470  0.16384363  0.35167420     0.06000
C291        C  0.88257737  0.16212347  0.34781652     0.25600
C292        C  0.90403238  0.13791936  0.36991003    -0.12100
C293        C  0.88481173  0.11562628  0.39649315    -0.26000
C294        C  0.84381855  0.11849230  0.40145018     0.36400
C295        C  0.81792130  0.18633793  0.32573004     0.06000
F296        F  0.90169355  0.18262359  0.32146001    -0.19800
H297        H  0.93558087  0.13618601  0.36579867     0.15900
F298        F  0.82405729  0.09705641  0.42643895    -0.23500
H299        H  0.79075239  0.14356307  0.38249600     0.17600
C300        C  0.78814172  0.17118925  0.30319276     0.25600
C301        C  0.76586978  0.19230218  0.27856008    -0.12100
C302        C  0.77366268  0.22907991  0.27429514    -0.26100
C303        C  0.80251144  0.24421631  0.29893761     0.36600
C304        C  0.82465559  0.22295296  0.32375634    -0.27700
F305        F  0.78084463  0.13571307  0.30462682    -0.19800
H306        H  0.74198091  0.17929855  0.26368405     0.15800
F307        F  0.80988875  0.27966533  0.29848237    -0.23500
H308        H  0.84697120  0.23515562  0.34174471     0.17700
C309        C  0.20675096  0.80771064  0.65525863    -0.27600
C310        C  0.17870785  0.82906015  0.67389602     0.06000
C311        C  0.17523880  0.82700835  0.71433634     0.25600
C312        C  0.19854291  0.80327520  0.73528691    -0.12100
C313        C  0.22551396  0.78011960  0.71670961    -0.26000
C314        C  0.23059454  0.78437371  0.67607529     0.36400
C315        C  0.15402883  0.85392318  0.65096016     0.06000
F316        F  0.14985775  0.84844556  0.73380696    -0.19800
H317        H  0.19489245  0.80227421  0.76641975     0.15900
F318        F  0.25968058  0.76801828  0.65592607    -0.23500
H319        H  0.21057456  0.80929293  0.62417949     0.17600
C320        C  0.17111023  0.87608488  0.62270233     0.25600
C321        C  0.14771004  0.89901450  0.60090190    -0.12100
C322        C  0.10692094  0.90090486  0.60717440    -0.26100
C323        C  0.08969186  0.87870621  0.63529067     0.36600
C324        C  0.11307509  0.85533860  0.65678552    -0.27700
F325        F  0.21064904  0.87650682  0.61699572    -0.19800
H326        H  0.16179089  0.91608974  0.57976575     0.15800
F327        F  0.05026300  0.87920617  0.64168591    -0.23500
H328        H  0.09910948  0.83810549  0.67783982     0.17700
C329        C  0.66129134  0.15106894  0.11230209    -0.27600
C330        C  0.65141896  0.15924211  0.15079715     0.06000
C331        C  0.61830050  0.14285013  0.16765097     0.25600
C332        C  0.59591984  0.11849770  0.14642142    -0.12100
C333        C  0.60624838  0.10979151  0.10814054    -0.26000
C334        C  0.63913489  0.12653775  0.09115934     0.36400
C335        C  0.67601417  0.18448344  0.17326853     0.06000
F336        F  0.60836896  0.14939328  0.20508545    -0.19800
H337        H  0.57096974  0.10585367  0.16030887     0.15900
F338        F  0.65008425  0.11926281  0.05416578    -0.23500
H339        H  0.68626782  0.16377020  0.09851547     0.17600
C340        C  0.71709265  0.18095545  0.17418894     0.25600
C341        C  0.73980434  0.20446437  0.19600222    -0.12100
C342        C  0.72231336  0.23090105  0.21962608    -0.26100
C343        C  0.68108637  0.23601015  0.21585563     0.36600
C344        C  0.65849222  0.21269713  0.19347097    -0.27700
F345        F  0.73526919  0.15382017  0.15535462    -0.19800
H346        H  0.77137856  0.20065810  0.19636764     0.15800
F347        F  0.66222214  0.26420777  0.23178510    -0.23500
H348        H  0.62707400  0.21702964  0.19146522     0.17700
C349        C  0.32140007  0.18553200  0.21995926    -0.27600
C350        C  0.31576964  0.18134449  0.18002369     0.06000
C351        C  0.28572202  0.20081841  0.16205883     0.25600
C352        C  0.26268613  0.22458735  0.18335217    -0.12100
C353        C  0.26987084  0.23112888  0.22303489    -0.26000
C354        C  0.29840214  0.20944937  0.24135335     0.36400
C355        C  0.33977904  0.15541774  0.15753914     0.06000
F356        F  0.27875897  0.19724523  0.12358403    -0.19800
H357        H  0.23879654  0.23726945  0.16824810     0.15900
F358        F  0.30505693  0.21228158  0.27994294    -0.23500
H359        H  0.34336857  0.16986737  0.23480160     0.17600
C360        C  0.38112508  0.15452448  0.16040772     0.25600
C361        C  0.40297317  0.12972139  0.13890391    -0.12100
C362        C  0.38406633  0.10588496  0.11373439    -0.26100
C363        C  0.34280927  0.10688309  0.11089471     0.36600
C364        C  0.32103666  0.13112855  0.13282267    -0.27700
F365        F  0.40045673  0.17812872  0.18322258    -0.19800
H366        H  0.43471016  0.12948366  0.14149051     0.15800
F367        F  0.32323404  0.08364453  0.08785992    -0.23500
H368        H  0.28926689  0.13061450  0.13078103     0.17700
C369        C  0.28139369  0.82055323  0.17896428    -0.27600
C370        C  0.32181201  0.81361240  0.17565281     0.06000
C371        C  0.33768116  0.78532693  0.19703652     0.25600
C372        C  0.31396341  0.76566376  0.22240177    -0.12100
C373        C  0.27366442  0.77385951  0.22782670    -0.26000
C374        C  0.25749815  0.80050947  0.20365081     0.36400
C375        C  0.34716025  0.83679954  0.15098945     0.06000
F376        F  0.37605998  0.77607712  0.19285129    -0.19800
H377        H  0.32749336  0.74345384  0.23690825     0.15900
F378        F  0.21851355  0.80824316  0.20491468    -0.23500
H379        H  0.26818949  0.84216541  0.16297917     0.17600
C380        C  0.33466965  0.84811187  0.11417922     0.25600
C381        C  0.35669206  0.87305085  0.09330552    -0.12100
C382        C  0.39183373  0.88699556  0.10834213    -0.26100
C383        C  0.40553109  0.87415609  0.14408985     0.36600
C384        C  0.38318443  0.84963095  0.16525017    -0.27700
F385        F  0.30105515  0.83522274  0.09835634    -0.19800
H386        H  0.34574015  0.88195511  0.06557472     0.15800
F387        F  0.43986975  0.88602858  0.15931669    -0.23500
H388        H  0.39347095  0.84166950  0.19355357     0.17700
C389        C  0.71349979  0.82510554  0.82568373    -0.27600
C390        C  0.67318037  0.81788145  0.82848761     0.06000
C391        C  0.65765460  0.78910247  0.80761327     0.25600
C392        C  0.68189865  0.76871784  0.78342901    -0.12100
C393        C  0.72223483  0.77701892  0.77854804    -0.26000
C394        C  0.73781921  0.80474039  0.80179540     0.36400
C395        C  0.64755172  0.84135444  0.85217693     0.06000
F396        F  0.61911364  0.78017606  0.81124249    -0.19800
H397        H  0.66875492  0.74605418  0.76928989     0.15900
F398        F  0.77666095  0.81302271  0.80057102    -0.23500
H399        H  0.72620170  0.84712288  0.84154251     0.17600
C400        C  0.65786492  0.85066020  0.89025979     0.25600
C401        C  0.63553032  0.87557725  0.91085742    -0.12100
C402        C  0.60246313  0.89164092  0.89398620    -0.26100
C403        C  0.59138187  0.88136082  0.85634462     0.36600
C404        C  0.61381713  0.85652717  0.83573721    -0.27700
F405        F  0.68964387  0.83575998  0.90750423    -0.19800
H406        H  0.64450953  0.88268329  0.93989063     0.15800
F407        F  0.55978457  0.89618565  0.83874799    -0.23500
H408        H  0.60557891  0.85006241  0.80630933     0.17700
C409        C  0.28592492  0.20147332  0.84438310    -0.27600
C410        C  0.31280926  0.17768594  0.82789619     0.06000
C411        C  0.31787749  0.17742344  0.78761915     0.25600
C412        C  0.29743016  0.20149274  0.76450471    -0.12100
C413        C  0.27179467  0.22718804  0.78070524    -0.26000
C414        C  0.26488878  0.22530365  0.82135659     0.36400
C415        C  0.33492903  0.15268743  0.85268633     0.06000
F416        F  0.34335051  0.15437377  0.77060937    -0.19800
H417        H  0.30234898  0.20065671  0.73354308     0.15900
F418        F  0.23628850  0.24434098  0.83928973    -0.23500
H419        H  0.28031324  0.20086207  0.87526525     0.17600
C420        C  0.35798437  0.16519176  0.88362842     0.25600
C421        C  0.38027377  0.14140243  0.90561044    -0.12100
C422        C  0.37975762  0.10503438  0.89696671    -0.26100
C423        C  0.35604907  0.09237686  0.86681928     0.36600
C424        C  0.33378614  0.11606671  0.84486048    -0.27700
F425        F  0.35998460  0.20046450  0.89169418    -0.19800
H426        H  0.39842809  0.15138221  0.92892750     0.15800
F427        F  0.35446761  0.05708848  0.85870534    -0.23500
H428        H  0.31569955  0.10586286  0.82160810     0.17700
C429        C  0.61194429  0.84912566  0.15721752    -0.27600
C430        C  0.65206633  0.84477717  0.14895925     0.06000
C431        C  0.66899711  0.86320346  0.11776636     0.25600
C432        C  0.64625789  0.88658437  0.09592783    -0.12100
C433        C  0.60647081  0.89225841  0.10521712    -0.26000
C434        C  0.58925915  0.87285217  0.13572032     0.36400
C435        C  0.67639036  0.82221910  0.17412305     0.06000
F436        F  0.70760205  0.85881816  0.10873245    -0.19800
H437        H  0.66014823  0.90108642  0.07252112     0.15900
F438        F  0.55073307  0.87709122  0.14515275    -0.23500
H439        H  0.59851997  0.83494327  0.18112818     0.17600
C440        C  0.70773014  0.83693805  0.19491456     0.25600
C441        C  0.72981104  0.81583057  0.21984582    -0.12100
C442        C  0.72065799  0.77950104  0.22546511    -0.26100
C443        C  0.69010811  0.76471303  0.20263534     0.36600
C444        C  0.66787196  0.78604469  0.17798765    -0.27700
F445        F  0.71659024  0.87200280  0.19160791    -0.19800
H446        H  0.75449984  0.82827890  0.23402867     0.15800
F447        F  0.68077563  0.72971710  0.20515308    -0.23500
H448        H  0.64397972  0.77427542  0.16172342     0.17700
C449        C  0.32389771  0.86259282  0.87921652    -0.27600
C450        C  0.34141965  0.84608342  0.84694233     0.06000
C451        C  0.38156732  0.85246910  0.83931359     0.25600
C452        C  0.40306913  0.87571955  0.86273556    -0.12100
C453        C  0.38530284  0.89260219  0.89459346    -0.26000
C454        C  0.34561466  0.88520048  0.90312636     0.36400
C455        C  0.31748045  0.82308770  0.82098203     0.06000
F456        F  0.40019056  0.83608465  0.80939147    -0.19800
H457        H  0.43367633  0.88066974  0.85576390     0.15900
F458        F  0.32720725  0.90076794  0.93367671    -0.23500
H459        H  0.29294748  0.85878344  0.88546509     0.17600
C460        C  0.29046937  0.79840514  0.83608646     0.25600
C461        C  0.26765500  0.77750786  0.81141356    -0.12100
C462        C  0.27269852  0.77862991  0.77074269    -0.26100
C463        C  0.29876330  0.80481558  0.75591277     0.36600
C464        C  0.32061235  0.82652061  0.78067091    -0.27700
F465        F  0.28650593  0.79382584  0.87487349    -0.19800
H466        H  0.24596726  0.76063467  0.82508181     0.15800
F467        F  0.30399792  0.80880035  0.71719536    -0.23500
H468        H  0.34005922  0.84628177  0.76810200     0.17700
C469        C  0.87694627  0.15854604  0.65942682    -0.27600
C470        C  0.83636423  0.16179491  0.65278136     0.06000
C471        C  0.81927914  0.14220860  0.62253225     0.25600
C472        C  0.84216414  0.11885039  0.60033468    -0.12100
C473        C  0.88243515  0.11427416  0.60808051    -0.26000
C474        C  0.89981524  0.13487729  0.63749403     0.36400
C475        C  0.81196381  0.18498742  0.67805461     0.06000
F476        F  0.78042076  0.14569185  0.61445796    -0.19800
H477        H  0.82805353  0.10360750  0.57769334     0.15900
F478        F  0.93881983  0.13212466  0.64518699    -0.23500
H479        H  0.89072724  0.17370492  0.68234645     0.17600
C480        C  0.77986501  0.17113238  0.69881731     0.25600
C481        C  0.75772065  0.19293786  0.72348105    -0.12100
C482        C  0.76756146  0.22915102  0.72913314    -0.26100
C483        C  0.79849930  0.24313989  0.70593235     0.36600
C484        C  0.82081646  0.22116242  0.68163522    -0.27700
F485        F  0.77025036  0.13621708  0.69576985    -0.19800
H486        H  0.73244867  0.18111836  0.73746265     0.15800
F487        F  0.80794257  0.27814471  0.70735929    -0.23500
H488        H  0.84493444  0.23253035  0.66521460     0.17700
C489        C  0.65152115  0.21990605  0.81418658    -0.27600
C490        C  0.66782829  0.19137874  0.83450743     0.06000
C491        C  0.70836635  0.18500912  0.83139182     0.25600
C492        C  0.73173901  0.20604121  0.80723672    -0.12100
C493        C  0.71534110  0.23312336  0.78400406    -0.26000
C494        C  0.67481673  0.24111771  0.78998734     0.36400
C495        C  0.64222041  0.16731324  0.85736940     0.06000
F496        F  0.72519199  0.15739004  0.85036019    -0.19800
H497        H  0.76286953  0.20019024  0.80539487     0.15900
F498        F  0.65746580  0.27022597  0.77452292    -0.23500
H499        H  0.62054370  0.22601790  0.81740971     0.17600
C500        C  0.65089276  0.15906385  0.89606684     0.25600
C501        C  0.62911028  0.13312940  0.91566479    -0.12100
C502        C  0.59806039  0.11523975  0.89721253    -0.26100
C503        C  0.58804974  0.12494468  0.85915277     0.36600
C504        C  0.61000666  0.15075171  0.83952712    -0.27700
F505        F  0.68057773  0.17591923  0.91481345    -0.19800
H506        H  0.63698236  0.12665238  0.94516583     0.15800
F507        F  0.55823559  0.10850363  0.84019154    -0.23500
H508        H  0.60279206  0.15683645  0.80975436     0.17700
C509        C  0.16071472  0.31764512  0.20764257    -0.27600
C510        C  0.17758676  0.33154829  0.17378112     0.06000
C511        C  0.21698130  0.32320587  0.16522839     0.25600
C512        C  0.23855196  0.30139032  0.18995762    -0.12100
C513        C  0.22066780  0.28409258  0.22178271    -0.26000
C514        C  0.18164034  0.29442034  0.23142044     0.36400
C515        C  0.15459847  0.35619768  0.14894005     0.06000
F516        F  0.23454821  0.33536506  0.13245985    -0.19800
H517        H  0.26920938  0.29662689  0.18311773     0.15900
F518        F  0.16396017  0.28414840  0.26484849    -0.23500
H519        H  0.13131426  0.32542611  0.21634993     0.17600
C520        C  0.11464128  0.34963167  0.14054492     0.25600
C521        C  0.09282500  0.37425242  0.11925857    -0.12100
C522        C  0.11073769  0.40507220  0.10485864    -0.26100
C523        C  0.15071469  0.41130475  0.11220303     0.36600
C524        C  0.17220669  0.38737563  0.13456204    -0.27700
F525        F  0.09675347  0.31925908  0.15244444    -0.19800
H526        H  0.06203044  0.36904875  0.11356013     0.15800
F527        F  0.16850068  0.44141196  0.09936380    -0.23500
H528        H  0.20244393  0.39377467  0.14141059     0.17700
C529        C  0.11401124  0.65140781  0.16720798    -0.27600
C530        C  0.14817539  0.66697628  0.15176229     0.06000
C531        C  0.15899945  0.65903329  0.11335397     0.25600
C532        C  0.13640436  0.63541098  0.09127578    -0.12100
C533        C  0.10260017  0.61927879  0.10699532    -0.26000
C534        C  0.09136972  0.62789828  0.14518744     0.36400
C535        C  0.17294970  0.69025938  0.17650643     0.06000
F536        F  0.19127631  0.67427591  0.09708861    -0.19800
H537        H  0.14564885  0.62945446  0.06194773     0.15900
F538        F  0.05919007  0.61288210  0.16186280    -0.23500
H539        H  0.10535542  0.65676377  0.19684819     0.17600
C540        C  0.15629450  0.71833391  0.19775427     0.25600
C541        C  0.17944589  0.73876541  0.22272640    -0.12100
C542        C  0.21976253  0.73102314  0.22846454    -0.26100
C543        C  0.23657335  0.70398112  0.20501288     0.36600
C544        C  0.21337228  0.68373948  0.17993490    -0.27700
F545        F  0.11763049  0.72653585  0.19379041    -0.19800
H546        H  0.16541300  0.76100723  0.23683396     0.15800
F547        F  0.27546262  0.69617576  0.20730862    -0.23500
H548        H  0.22694589  0.66231120  0.16378614     0.17700
C549        C  0.87463235  0.66008274  0.15395722    -0.27600
C550        C  0.83423246  0.66326132  0.14642279     0.06000
C551        C  0.81760889  0.64276123  0.11663221     0.25600
C552        C  0.84088163  0.61871850  0.09566350    -0.12100
C553        C  0.88103030  0.61435729  0.10428759    -0.26000
C554        C  0.89783962  0.63574916  0.13333343     0.36400
C555        C  0.80956390  0.68673226  0.17110090     0.06000
F556        F  0.77885824  0.64593053  0.10791412    -0.19800
H557        H  0.82718609  0.60284334  0.07328750     0.15900
F558        F  0.93662229  0.63308283  0.14202485    -0.23500
H559        H  0.88798884  0.67578015  0.17669205     0.17600
C560        C  0.77860619  0.67266723  0.19326394     0.25600
C561        C  0.75770052  0.69426883  0.21912076    -0.12100
C562        C  0.76747182  0.73057037  0.22431045    -0.26100
C563        C  0.79655819  0.74494510  0.19917930     0.36600
C564        C  0.81791816  0.72309301  0.17387306    -0.27700
F565        F  0.76913362  0.63768921  0.19064468    -0.19800
H566        H  0.73338119  0.68218483  0.23439913     0.15800
F567        F  0.80548690  0.78009531  0.20012898    -0.23500
H568        H  0.84115376  0.73460173  0.15636507     0.17700
C569        C  0.12205921  0.63548560  0.81909410    -0.27600
C570        C  0.15262843  0.65570905  0.83529206     0.06000
C571        C  0.15832754  0.65460414  0.87561266     0.25600
C572        C  0.13455635  0.63293374  0.89888842    -0.12100
C573        C  0.10422500  0.61247704  0.88259691    -0.26000
C574        C  0.09793158  0.61425372  0.84239370     0.36400
C575        C  0.17722024  0.67886886  0.81010482     0.06000
F576        F  0.18616857  0.67514767  0.89268372    -0.19800
H577        H  0.13978581  0.63227695  0.92977372     0.15900
F578        F  0.06927356  0.59470903  0.82526848    -0.23500
H579        H  0.11708717  0.63582278  0.78815998     0.17600
C580        C  0.21843502  0.67892963  0.81254830     0.25600
C581        C  0.24065155  0.70241973  0.78999871    -0.12100
C582        C  0.22264586  0.72709858  0.76469579    -0.26100
C583        C  0.18133877  0.72366486  0.75936963     0.36600
C584        C  0.15921766  0.70067777  0.78255823    -0.27700
F585        F  0.23737016  0.65591206  0.83626140    -0.19800
H586        H  0.27234587  0.70215554  0.79312662     0.15800
F587        F  0.16182306  0.74039527  0.73055875    -0.23500
H588        H  0.12760848  0.69988285  0.77878881     0.17700
C589        C  0.83931740  0.72164070  0.81321424    -0.27600
C590        C  0.82162530  0.69404278  0.83410542     0.06000
C591        C  0.78088382  0.68909842  0.83157461     0.25600
C592        C  0.75878095  0.70984392  0.80634930    -0.12100
C593        C  0.77675374  0.73519953  0.78174648    -0.26000
C594        C  0.81725738  0.74263982  0.78803270     0.36400
C595        C  0.84601007  0.66910308  0.85654543     0.06000
F596        F  0.76271418  0.66288296  0.85186723    -0.19800
H597        H  0.72748564  0.70478685  0.80443971     0.15900
F598        F  0.83579225  0.77078481  0.77162034    -0.23500
H599        H  0.87047840  0.72688128  0.81638861     0.17600
C600        C  0.87648240  0.65029971  0.83814294     0.25600
C601        C  0.89724829  0.62431254  0.85821827    -0.12100
C602        C  0.88782622  0.61642428  0.89686388    -0.26100
C603        C  0.85815702  0.63605780  0.91571783     0.36600
C604        C  0.83742117  0.66220012  0.89558980    -0.27700
F605        F  0.88480724  0.65576061  0.80014337    -0.19800
H606        H  0.91986324  0.60953470  0.84303401     0.15800
F607        F  0.84900073  0.62993129  0.95340274    -0.23500
H608        H  0.81427481  0.67673625  0.91027084     0.17700
C609        C  0.22349516  0.33186349  0.81952079    -0.27600
C610        C  0.18235634  0.33368636  0.81719994     0.06000
C611        C  0.16291984  0.31015604  0.79195051     0.25600
C612        C  0.18411680  0.28538366  0.77004365    -0.12100
C613        C  0.22513768  0.28120494  0.77466337    -0.26000
C614        C  0.24457926  0.30610758  0.79888459     0.36400
C615        C  0.15990186  0.36018708  0.84073953     0.06000
F616        F  0.12310511  0.31028434  0.78904515    -0.19800
H617        H  0.16768524  0.26962658  0.74963113     0.15900
F618        F  0.28416396  0.30486714  0.80361756    -0.23500
H619        H  0.23955810  0.35040398  0.83751147     0.17600
C620        C  0.16888417  0.36655542  0.87999668     0.25600
C621        C  0.14632621  0.39046050  0.90193890    -0.12100
C622        C  0.11404602  0.40807205  0.88551733    -0.26100
C623        C  0.10557403  0.40226407  0.84614559     0.36600
C624        C  0.12855238  0.37899585  0.82406925    -0.27700
F625        F  0.19856332  0.34883877  0.89766608    -0.19800
H626        H  0.15360802  0.39458356  0.93209469     0.15800
F627        F  0.07539716  0.41939549  0.82860624    -0.23500
H628        H  0.12174133  0.37577145  0.79369133     0.17700
C629        C  0.88231080  0.35747509  0.16357120    -0.27600
C630        C  0.85069097  0.34010332  0.14547863     0.06000
C631        C  0.84194031  0.34845247  0.10681630     0.25600
C632        C  0.86346458  0.37457960  0.08726863    -0.12100
C633        C  0.89424154  0.39285813  0.10572243    -0.26000
C634        C  0.90400441  0.38354634  0.14396166     0.36400
C635        C  0.82538847  0.31532405  0.16795355     0.06000
F636        F  0.81243570  0.33144429  0.08795837    -0.19800
H637        H  0.85559148  0.38086617  0.05772261     0.15900
F638        F  0.93339279  0.40050552  0.16302778    -0.23500
H639        H  0.88933805  0.35175596  0.19346556     0.17600
C640        C  0.84172819  0.28798560  0.19028683     0.25600
C641        C  0.81775450  0.26713161  0.21420406    -0.12100
C642        C  0.77687378  0.27380899  0.21770752    -0.26100
C643        C  0.76044445  0.29910341  0.19209800     0.36600
C644        C  0.78446592  0.31993883  0.16832413    -0.27700
F645        F  0.88093074  0.28120234  0.18874764    -0.19800
H646        H  0.83177046  0.24578131  0.22975671     0.15800
F647        F  0.72109317  0.30512955  0.19158649    -0.23500
H648        H  0.77104438  0.34058894  0.15103599     0.17700
C649        C  0.83429595  0.35068761  0.89467927    -0.27600
C650        C  0.84471524  0.34056239  0.85691573     0.06000
C651        C  0.87860462  0.35551815  0.83989285     0.25600
C652        C  0.90101628  0.38061086  0.86011136    -0.12100
C653        C  0.88997669  0.39150648  0.89751140    -0.26000
C654        C  0.85663440  0.37575567  0.91489994     0.36400
C655        C  0.81884125  0.31624501  0.83460352     0.06000
F656        F  0.88891811  0.34728938  0.80295709    -0.19800
H657        H  0.92636223  0.39237127  0.84592921     0.15900
F658        F  0.84506503  0.38491084  0.95121353    -0.23500
H659        H  0.80844568  0.33938058  0.90843720     0.17600
C660        C  0.83418976  0.28666189  0.81495574     0.25600
C661        C  0.81011496  0.26615516  0.79097228    -0.12100
C662        C  0.77017599  0.27513699  0.78493327    -0.26100
C663        C  0.75416858  0.30247689  0.80849084     0.36600
C664        C  0.77837568  0.32307903  0.83225803    -0.27700
F665        F  0.87245393  0.27725207  0.81933902    -0.19800
H666        H  0.82320795  0.24311827  0.77741517     0.15800
F667        F  0.71539758  0.31081456  0.80681972    -0.23500
H668        H  0.76560386  0.34519990  0.84797456     0.17700
C669        C  0.66406997  0.65446497  0.61392251    -0.27600
C670        C  0.65992961  0.65641983  0.65425028     0.06000
C671        C  0.63230204  0.63449133  0.67287508     0.25600
C672        C  0.60925426  0.61080812  0.65138837    -0.12100
C673        C  0.61392227  0.60811419  0.61105554    -0.26000
C674        C  0.64155417  0.63031875  0.59243726     0.36400
C675        C  0.68450252  0.68119789  0.67699616     0.06000
F676        F  0.62763762  0.63608759  0.71187689    -0.19800
H677        H  0.58837537  0.59396272  0.66644997     0.15900
F678        F  0.64664732  0.62892018  0.55347728    -0.23500
H679        H  0.68517912  0.67132659  0.59917433     0.17600
C680        C  0.71499021  0.66837641  0.70022690     0.25600
C681        C  0.73665530  0.69165816  0.72345395    -0.12100
C682        C  0.72751451  0.72838413  0.72539468    -0.26100
C683        C  0.69843936  0.74112825  0.69951246     0.36600
C684        C  0.67709573  0.71774405  0.67603343    -0.27700
F685        F  0.72412664  0.63325558  0.70009982    -0.19800
H686        H  0.76092555  0.68045748  0.73935070     0.15800
F687        F  0.68969281  0.77626331  0.69774597    -0.23500
H688        H  0.65414522  0.72811996  0.65757528     0.17700
C689        C  0.34067393  0.34831268  0.61306940    -0.27600
C690        C  0.34617888  0.34600287  0.65334699     0.06000
C691        C  0.37435982  0.36824677  0.67079675     0.25600
C692        C  0.39673847  0.39173782  0.64842177    -0.12100
C693        C  0.39100708  0.39430605  0.60830493    -0.26000
C694        C  0.36256610  0.37243955  0.59075328     0.36400
C695        C  0.32241699  0.32083301  0.67720766     0.06000
F696        F  0.37938256  0.36824888  0.70975345    -0.19800
H697        H  0.41793240  0.40867784  0.66277010     0.15900
F698        F  0.35631563  0.37393951  0.55201388    -0.23500
H699        H  0.31954844  0.33125834  0.59879778     0.17600
C700        C  0.28139515  0.31872257  0.67327460     0.25600
C701        C  0.25936416  0.29651265  0.69744910    -0.12100
C702        C  0.27722392  0.27511855  0.72613643    -0.26100
C703        C  0.31865830  0.27809529  0.73033519     0.36600
C704        C  0.34062247  0.29999032  0.70563552    -0.27700
F705        F  0.26223228  0.33919257  0.64710896    -0.19800
H706        H  0.22771858  0.29604161  0.69391139     0.15800
F707        F  0.33838135  0.26232916  0.75964427    -0.23500
H708        H  0.37220006  0.30124559  0.70942285     0.17700
C709        C  0.67002187  0.35683213  0.38605658    -0.27600
C710        C  0.65878459  0.34738375  0.34848805     0.06000
C711        C  0.62444277  0.36194470  0.33269737     0.25600
C712        C  0.60192566  0.38620872  0.35406822    -0.12100
C713        C  0.61346573  0.39649972  0.39147107    -0.26000
C714        C  0.64762263  0.38115138  0.40750434     0.36400
C715        C  0.68373998  0.32357309  0.32499223     0.06000
F716        F  0.61319031  0.35315792  0.29626877    -0.19800
H717        H  0.57590292  0.39751342  0.34098122     0.15900
F718        F  0.65978724  0.38987785  0.44366406    -0.23500
H719        H  0.69650378  0.34575687  0.39851432     0.17600
C720        C  0.71281175  0.33771826  0.30072577     0.25600
C721        C  0.73441649  0.31552135  0.27616745    -0.12100
C722        C  0.72678871  0.27852533  0.27421001    -0.26100
C723        C  0.69937267  0.26442793  0.30129982     0.36600
C724        C  0.67778653  0.28681588  0.32581973    -0.27700
F725        F  0.72021531  0.37318188  0.30068589    -0.19800
H726        H  0.75743155  0.32783371  0.25927018     0.15800
F727        F  0.69226983  0.22896513  0.30302811    -0.23500
H728        H  0.65590447  0.27549802  0.34507671     0.17700
C729        C  0.28343074  0.67283680  0.31823224    -0.27600
C730        C  0.31673374  0.68748476  0.33581004     0.06000
C731        C  0.32494880  0.72363438  0.33041953     0.25600
C732        C  0.30095484  0.74431313  0.30649203    -0.12100
C733        C  0.26981534  0.72903140  0.28498429    -0.26000
C734        C  0.25996355  0.69312124  0.29347336     0.36400
C735        C  0.34306340  0.66440391  0.35882160     0.06000
F736        F  0.35624012  0.73890574  0.34820053    -0.19800
H737        H  0.30791656  0.77224645  0.30321287     0.15900
F738        F  0.22709752  0.67740505  0.27935053    -0.23500
H739        H  0.27586057  0.64524233  0.32329394     0.17600
C740        C  0.33024042  0.64953570  0.39390885     0.25600
C741        C  0.35381803  0.62491543  0.41342990    -0.12100
C742        C  0.39044825  0.61429209  0.39813065    -0.26100
C743        C  0.40364530  0.63002432  0.36338730     0.36600
C744        C  0.38015228  0.65494143  0.34411981    -0.27700
F745        F  0.29469312  0.65855774  0.40902910    -0.19800
H746        H  0.34289385  0.61352720  0.44017074     0.15800
F747        F  0.43872658  0.62078924  0.34742367    -0.23500
H748        H  0.39035607  0.66604067  0.31694742     0.17700
C749        C  0.61058618  0.66190201  0.34830307    -0.27600
C750        C  0.64751425  0.67308384  0.36177495     0.06000
C751        C  0.66075246  0.66071367  0.39785770     0.25600
C752        C  0.63914882  0.63508442  0.41807694    -0.12100
C753        C  0.60370073  0.62183926  0.40303401    -0.26000
C754        C  0.58866494  0.63673480  0.36879432     0.36400
C755        C  0.67268422  0.69572968  0.33672482     0.06000
F756        F  0.69480866  0.67300118  0.41331982    -0.19800
H757        H  0.65082331  0.62483964  0.44494918     0.15900
F758        F  0.55357414  0.62606621  0.35416131    -0.23500
H759        H  0.59942868  0.67147757  0.32092214     0.17600
C760        C  0.71214876  0.68680971  0.32944974     0.25600
C761        C  0.73461337  0.70680092  0.30352015    -0.12100
C762        C  0.71787732  0.73466880  0.28176385    -0.26100
C763        C  0.67877045  0.74496854  0.29144488     0.36600
C764        C  0.65661876  0.72533454  0.31805102    -0.27700
F765        F  0.72866207  0.65774032  0.34595601    -0.19800
H766        H  0.76511390  0.69951808  0.29915406     0.15800
F767        F  0.66200498  0.77488322  0.27718604    -0.23500
H768        H  0.62669881  0.73346763  0.32429659     0.17700
C769        C  0.67103183  0.35758679  0.61562638    -0.27600
C770        C  0.65332375  0.34126527  0.64771767     0.06000
C771        C  0.61378706  0.34854726  0.65645281     0.25600
C772        C  0.59275774  0.37287181  0.63408667    -0.12100
C773        C  0.61072605  0.39012929  0.60254417    -0.26000
C774        C  0.64992519  0.38160098  0.59293124     0.36400
C775        C  0.67711505  0.31901834  0.67377977     0.06000
F776        F  0.59619249  0.33351712  0.68776071    -0.19800
H777        H  0.56261920  0.37888052  0.64210202     0.15900
F778        F  0.66846491  0.39744757  0.56266656    -0.23500
H779        H  0.70158149  0.35219706  0.60863394     0.17600
C780        C  0.66915556  0.28278827  0.67848829     0.25600
C781        C  0.69151880  0.26256409  0.70417305    -0.12100
C782        C  0.72087263  0.27830489  0.72764585    -0.26100
C783        C  0.73018752  0.31455935  0.72046145     0.36600
C784        C  0.70820908  0.33442480  0.69418270    -0.27700
F785        F  0.63994866  0.26694546  0.65805648    -0.19800
H786        H  0.68488625  0.23451968  0.70694581     0.15800
F787        F  0.76156110  0.33093709  0.73674976    -0.23500
H788        H  0.71547234  0.36217954  0.68976263     0.17700
C789        C  0.34778352  0.65716317  0.61215678    -0.27600
C790        C  0.35306110  0.65971933  0.65235429     0.06000
C791        C  0.38155959  0.63832141  0.67029834     0.25600
C792        C  0.40392562  0.61460083  0.64833246    -0.12100
C793        C  0.39769360  0.61121147  0.60837451    -0.26000
C794        C  0.36980944  0.63307701  0.59026239     0.36400
C795        C  0.32758867  0.68364482  0.67538248     0.06000
F796        F  0.38637780  0.63892659  0.70927587    -0.19800
H797        H  0.42500452  0.59774964  0.66295186     0.15900
F798        F  0.36372836  0.63112255  0.55151022    -0.23500
H799        H  0.32622981  0.67367769  0.59775095     0.17600
C800        C  0.34358857  0.70743349  0.70231113     0.25600
C801        C  0.31905015  0.72941876  0.72418852    -0.12100
C802        C  0.27778609  0.72980055  0.71848510    -0.26100
C803        C  0.26209979  0.70482905  0.69188243     0.36600
C804        C  0.28671768  0.68240906  0.67060501    -0.27700
F805        F  0.38312928  0.70992988  0.70710939    -0.19800
H806        H  0.33317495  0.74567088  0.74577971     0.15800
F807        F  0.22277051  0.70268311  0.68568800    -0.23500
H808        H  0.27372324  0.66381005  0.65037680     0.17700
C809        C  0.37348038  0.37610723  0.32348432    -0.27600
C810        C  0.34479870  0.35428564  0.34069774     0.06000
C811        C  0.34078263  0.35458373  0.38131257     0.25600
C812        C  0.36394246  0.37733973  0.40383760    -0.12100
C813        C  0.39219222  0.39947364  0.38645686    -0.24800
C814        C  0.39714824  0.39826565  0.34601486     0.36400
C815        C  0.31966920  0.33123163  0.31600250     0.06000
F816        F  0.31509562  0.33239184  0.39933344    -0.19800
H817        H  0.35996056  0.37748889  0.43495360     0.15900
F818        F  0.42381649  0.41944723  0.32793466    -0.23500
H819        H  0.37711917  0.37652570  0.29234003     0.17600
C820        C  0.27868710  0.32992344  0.32108761     0.25600
C821        C  0.25578325  0.30737172  0.29821008    -0.12100
C822        C  0.27289553  0.28466340  0.27015410    -0.26100
C823        C  0.31357392  0.28966369  0.26216571     0.36600
C824        C  0.33653741  0.31164750  0.28563927    -0.27700
F825        F  0.26053632  0.35107049  0.34753433    -0.19800
H826        H  0.22435075  0.30688268  0.30328479     0.15800
F827        F  0.33135940  0.27521036  0.23067337    -0.23500
H828        H  0.36779785  0.31357506  0.27973335     0.17700
loop_ 
_geom_bond_atom_site_label_1 
_geom_bond_atom_site_label_2 
_geom_bond_distance 
_geom_bond_site_symmetry_2 
_ccdc_geom_bond_type 
N1            N2   1.319       .  A
N1            N7   1.316       .  A
N1          Mn30   2.201       .  S
N2            C9   1.353       .  A
N3            N5   1.315       .  A
N3            N4   1.321       .  A
N3          Mn19   2.206       .  S
N4           C10   1.354       .  A
N5            N6   1.324       .  A
N5          Mn30   2.216       .  S
N6           C10   1.357       .  A
N7            N8   1.321       .  A
N7          Mn19   2.208       .  S
N8            C9   1.354       .  A
C9          C813   1.479       .  S
C10         C742   1.490       .  S
N11          N17   1.316       .  A
N11          N12   1.318       .  A
N11         Mn41   2.188       .  S
N12          C20   1.352       .  A
N13          N14   1.322       .  A
N13          N15   1.316       .  A
N13         Mn19   2.208       .  S
N14          C21   1.354       .  A
N15          N16   1.320       .  A
N15         Mn41   2.207       .  S
N16          C21   1.354       .  A
N17          N18   1.319       .  A
N17         Mn19   2.202       .  S
N18          C20   1.353       .  A
Mn19        Cl43   2.543       .  S
C20         C793   1.471       .  S
C21         C693   1.483       .  S
N22          N23   1.319       .  A
N22          N28   1.315       .  A
N22         Mn30   2.196       .  S
N23          C31   1.352       .  A
N24          N26   1.315       .  A
N24          N25   1.319       .  A
N24         Mn42   2.194       .  S
N25          C32   1.351       .  A
N26          N27   1.323       .  A
N26         Mn30   2.219       .  S
N27          C32   1.357       .  A
N28          N29   1.320       .  A
N28         Mn42   2.202       .  S
N29          C31   1.354       .  A
Mn30        Cl43   2.552       .  S
C31         C753   1.478       .  S
C32         C713   1.485       .  S
N33          N34   1.319       .  A
N33          N39   1.315       .  A
N33         Mn41   2.196       .  S
N34          C44   1.353       .  A
N35          N36   1.320       .  A
N35          N37   1.314       .  A
N35         Mn42   2.195       .  S
N36          C45   1.352       .  A
N37          N38   1.323       .  A
N37         Mn41   2.215       .  S
N38          C45   1.356       .  A
N39          N40   1.321       .  A
N39         Mn42   2.208       .  S
N40          C44   1.355       .  A
Mn41        Cl43   2.551       .  S
Mn42        Cl43   2.543       .  S
C44         C773   1.480       .  S
C45         C673   1.484       .  S
N46          N47   1.324       .  A
N46          N52   1.315       .  A
N46         Mn75   2.217       .  S
N47          C54   1.357       .  A
N48          N50   1.315       .  A
N48          N49   1.320       .  A
N48         Mn64   2.196       .  S
N49          C55   1.353       .  A
N50          N51   1.318       .  A
N50         Mn75   2.194       .  S
N51          C55   1.352       .  A
N52          N53   1.318       .  A
N52         Mn64   2.195       .  S
N53          C54   1.351       .  A
C54         C653   1.485       .  S
C55         C602   1.474       .  S
N56          N62   1.315       .  A
N56          N57   1.323       .  A
N56         Mn86   2.216       .  S
N57          C65   1.357       .  A
N58          N59   1.319       .  A
N58          N60   1.315       .  A
N58         Mn64   2.196   1_554  S
N59          C66   1.353       .  A
N60          N61   1.322       .  A
N60         Mn86   2.210       .  S
N61          C66   1.356       .  A
N62          N63   1.321       .  A
N62         Mn64   2.201   1_554  S
N63          C65   1.353       .  A
Mn64        Cl88   2.546       .  S
C65         C553   1.486       .  S
C66         C633   1.483       .  S
N67          N68   1.320       .  A
N67          N73   1.316       .  A
N67         Mn75   2.208   1_455  S
N68          C76   1.354       .  A
N69          N71   1.317       .  A
N69          N70   1.323       .  A
N69         Mn87   2.220       .  S
N70          C77   1.356       .  A
N71          N72   1.319       .  A
N71         Mn75   2.197   1_455  S
N72          C77   1.352       .  A
N73          N74   1.321       .  A
N73         Mn87   2.202       .  S
N74          C76   1.353       .  A
Mn75        Cl88   2.550       .  S
C76         C573   1.481       .  S
C77         C622   1.484       .  S
N78          N79   1.320       .  A
N78          N84   1.317       .  A
N78         Mn86   2.205   1_455  S
N79          C89   1.352       .  A
N80          N81   1.322       .  A
N80          N82   1.317       .  A
N80         Mn87   2.211   1_554  S
N81          C90   1.355       .  A
N82          N83   1.320       .  A
N82         Mn86   2.206   1_455  S
N83          C90   1.353       .  A
N84          N85   1.319       .  A
N84         Mn87   2.198   1_554  S
N85          C89   1.351       .  A
Mn86        Cl88   2.548   1_554  S
Mn87        Cl88   2.549   1_455  S
C89         C522   1.468       .  S
C90         C533   1.485       .  S
C91         C482   1.563       .  S
C91         C493   1.560       .  S
C91         C662   1.556       .  S
C91         C782   1.554       .  S
N92          N93   1.321       .  A
N92          N98   1.315       .  A
N92        Mn121   2.204       .  S
N93         C100   1.354       .  A
N94          N96   1.315       .  A
N94          N95   1.321       .  A
N94        Mn110   2.203   1_566  S
N95         C101   1.354       .  A
N96          N97   1.321       .  A
N96        Mn121   2.203   1_565  S
N97         C101   1.354       .  A
N98          N99   1.320       .  A
N98        Mn110   2.200   1_556  S
N99         C100   1.353       .  A
C100        C502   1.481       .  S
C101        C402   1.483       .  S
N102        N108   1.315       .  A
N102        N103   1.319       .  A
N102       Mn132   2.196   1_565  S
N103        C111   1.352       .  A
N104        N105   1.319       .  A
N104        N106   1.316       .  A
N104       Mn110   2.199       .  S
N105        C112   1.353       .  A
N106        N107   1.321       .  A
N106       Mn132   2.208       .  S
N107        C112   1.355       .  A
N108        N109   1.319       .  A
N108       Mn110   2.196   1_565  S
N109        C111   1.353       .  A
Mn110      Cl134   2.544       .  S
C111        C433   1.475       .  S
C112        C333   1.482       .  S
N113        N114   1.320       .  A
N113        N119   1.315       .  A
N113       Mn121   2.199   1_565  S
N114        C122   1.353       .  A
N115        N117   1.317       .  A
N115        N116   1.320       .  A
N115       Mn133   2.199   1_546  S
N116        C123   1.351       .  A
N117        N118   1.320       .  A
N117       Mn121   2.205       .  S
N118        C123   1.352       .  A
N119        N120   1.320       .  A
N119       Mn133   2.204   1_556  S
N120        C122   1.354       .  A
Mn121      Cl134   2.549   1_556  S
C122        C453   1.480       .  S
C123        C422   1.465       .  S
N124        N125   1.323       .  A
N124        N130   1.316       .  A
N124       Mn132   2.206       .  S
N125        C135   1.354       .  A
N126        N127   1.320       .  A
N126        N128   1.315       .  A
N126       Mn133   2.199       .  S
N127        C136   1.354       .  A
N128        N129   1.321       .  A
N128       Mn132   2.208   1_565  S
N129        C136   1.355       .  A
N130        N131   1.319       .  A
N130       Mn133   2.206   1_545  S
N131        C135   1.353       .  A
Mn132      Cl134   2.549       .  S
Mn133      Cl134   2.544   1_565  S
C135        C362   1.481       .  S
C136        C382   1.484       .  S
C137        C313   1.560       .  S
C137        C462   1.563       .  S
C137        C582   1.564       .  S
C137        C802   1.556       .  S
N138        N139   1.323       .  A
N138        N144   1.316       .  A
N138       Mn167   2.214       .  S
N139        C146   1.356       .  A
N140        N142   1.314       .  A
N140        N141   1.318       .  A
N140       Mn156   2.186   1_565  S
N141        C147   1.351       .  A
N142        N143   1.322       .  A
N142       Mn167   2.210   1_565  S
N143        C147   1.356       .  A
N144        N145   1.321       .  A
N144       Mn156   2.206       .  S
N145        C146   1.354       .  A
C146        C473   1.486       .  S
C147        C242   1.479       .  S
N148        N154   1.315       .  A
N148        N149   1.321       .  A
N148       Mn178   2.206   1_565  S
N149        C157   1.354       .  A
N150        N151   1.317       .  A
N150        N152   1.315       .  A
N150       Mn156   2.187       .  S
N151        C158   1.350       .  A
N152        N153   1.320       .  A
N152       Mn178   2.201       .  S
N153        C158   1.354       .  A
N154        N155   1.321       .  A
N154       Mn156   2.202   1_565  S
N155        C157   1.353       .  A
Mn156      Cl180   2.543       .  S
C157        C282   1.482       .  S
C158        C293   1.471       .  S
N159        N160   1.322       .  A
N159        N165   1.316       .  A
N159       Mn167   2.203   1_465  S
N160        C168   1.354       .  A
N161        N163   1.317       .  A
N161        N162   1.321       .  A
N161       Mn179   2.201       .  S
N162        C169   1.352       .  A
N163        N164   1.320       .  A
N163       Mn167   2.204   1_455  S
N164        C169   1.352       .  A
N165        N166   1.320       .  A
N165       Mn179   2.208   1_565  S
N166        C168   1.354       .  A
Mn167      Cl180   2.552       .  S
C168        C322   1.481       .  S
C169        C193   1.468       .  S
N170        N171   1.322       .  A
N170        N176   1.316       .  A
N170       Mn178   2.206   1_455  S
N171        C181   1.354       .  A
N172        N173   1.317       .  A
N172        N174   1.315       .  A
N172       Mn179   2.194   1_565  S
N173        C182   1.351       .  A
N174        N175   1.323       .  A
N174       Mn178   2.211   1_465  S
N175        C182   1.357       .  A
N176        N177   1.321       .  A
N176       Mn179   2.211       .  S
N177        C181   1.355       .  A
Mn178      Cl180   2.552       .  S
Mn179      Cl180   2.540   1_455  S
C181        C213   1.484       .  S
C182        C253   1.481       .  S
C183        C273   1.558       .  S
C183        C442   1.551       .  S
C183        C562   1.561       .  S
C183        C762   1.556       .  S
C184        C222   1.558       .  S
C184        C353   1.560       .  S
C184        C513   1.556       .  S
C184        C822   1.559       .  S
C185        C302   1.557       .  S
C185        C342   1.559       .  S
C185        C642   1.559       .  S
C185        C722   1.558       .  S
C186        C262   1.559       .  S
C186        C373   1.562       .  S
C186        C542   1.558       .  S
C186        C733   1.561       .  S
C187        C202   1.562       .  S
C187        C413   1.557       .  S
C187        C613   1.559       .  S
C187        C702   1.562       .  S
C188        C233   1.553       .  S
C188        C393   1.557       .  S
C188        C593   1.556       .  S
C188        C682   1.562       .  S
C189        C190   1.409       .  A
C189        C194   1.398       .  A
C189        H199   1.083       .  S
C190        C195   1.489       .  S
C190        C191   1.409       .  A
C191        C192   1.398       .  A
C191        F196   1.357       .  S
C192        C193   1.402       .  A
C192        H197   1.084       .  S
C193        C194   1.401       .  A
C194        F198   1.358       .  S
C195        C200   1.403       .  A
C195        C204   1.404       .  A
C200        C201   1.395       .  A
C200        F205   1.358       .  S
C201        C202   1.417       .  A
C201        H206   1.080       .  S
C202        C203   1.418       .  A
C203        C204   1.399       .  A
C203        F207   1.357       .  S
C204        H208   1.083       .  S
C209        C210   1.406       .  A
C209        C214   1.398       .  A
C209        H219   1.082       .  S
C210        C215   1.493       .  S
C210        C211   1.410       .  A
C211        C212   1.403       .  A
C211        F216   1.358       .  S
C212        C213   1.406       .  A
C212        H217   1.083       .  S
C213        C214   1.407       .  A
C214        F218   1.357       .  S
C215        C220   1.407       .  A
C215        C224   1.403       .  A
C220        C221   1.399       .  A
C220        F225   1.357       .  S
C221        C222   1.414       .  A
C221        H226   1.079       .  S
C222        C223   1.419       .  A
C223        C224   1.399       .  A
C223        F227   1.357       .  S
C224        H228   1.083       .  S
C229        C230   1.399       .  A
C229        C234   1.399       .  A
C229        H239   1.083       .  S
C230        C235   1.476       .  S
C230        C231   1.400       .  A
C231        C232   1.393       .  A
C231        F236   1.358       .  S
C232        C233   1.415       .  A
C232        H237   1.080       .  S
C233        C234   1.419       .  A
C234        F238   1.357       .  S
C235        C240   1.405       .  A
C235        C244   1.401       .  A
C240        C241   1.399       .  A
C240        F245   1.357       .  S
C241        C242   1.405       .  A
C241        H246   1.083       .  S
C242        C243   1.410       .  A
C243        C244   1.396       .  A
C243        F247   1.357       .  S
C244        H248   1.083       .  S
C249        C250   1.401       .  A
C249        C254   1.396       .  A
C249        H259   1.083       .  S
C250        C255   1.479       .  S
C250        C251   1.406       .  A
C251        C252   1.401       .  A
C251        F256   1.357       .  S
C252        C253   1.405       .  A
C252        H257   1.083       .  S
C253        C254   1.410       .  A
C254        F258   1.357       .  S
C255        C260   1.402       .  A
C255        C264   1.399       .  A
C260        C261   1.397       .  A
C260        F265   1.358       .  S
C261        C262   1.416       .  A
C261        H266   1.080       .  S
C262        C263   1.419       .  A
C263        C264   1.399       .  A
C263        F267   1.356       .  S
C264        H268   1.083       .  S
C269        C270   1.401       .  A
C269        C274   1.401       .  A
C269        H279   1.083       .  S
C270        C275   1.481       .  S
C270        C271   1.401       .  A
C271        C272   1.395       .  A
C271        F276   1.358       .  S
C272        C273   1.416       .  A
C272        H277   1.081       .  S
C273        C274   1.421       .  A
C274        F278   1.355       .  S
C275        C280   1.406       .  A
C275        C284   1.403       .  A
C280        C281   1.400       .  A
C280        F285   1.358       .  S
C281        C282   1.406       .  A
C281        H286   1.083       .  S
C282        C283   1.409       .  A
C283        C284   1.398       .  A
C283        F287   1.357       .  S
C284        H288   1.083       .  S
C289        C290   1.402       .  A
C289        C294   1.393       .  A
C289        H299   1.083       .  S
C290        C295   1.473       .  S
C290        C291   1.405       .  A
C291        C292   1.397       .  A
C291        F296   1.357       .  S
C292        C293   1.404       .  A
C292        H297   1.083       .  S
C293        C294   1.407       .  A
C294        F298   1.358       .  S
C295        C300   1.400       .  A
C295        C304   1.398       .  A
C300        C301   1.392       .  A
C300        F305   1.358       .  S
C301        C302   1.416       .  A
C301        H306   1.079       .  S
C302        C303   1.420       .  A
C303        C304   1.397       .  A
C303        F307   1.357       .  S
C304        H308   1.084       .  S
C309        C310   1.401       .  A
C309        C314   1.397       .  A
C309        H319   1.083       .  S
C310        C315   1.489       .  S
C310        C311   1.404       .  A
C311        C312   1.399       .  A
C311        F316   1.357       .  S
C312        C313   1.416       .  A
C312        H317   1.083       .  S
C313        C314   1.423       .  A
C314        F318   1.354       .  S
C315        C320   1.408       .  A
C315        C324   1.407       .  A
C320        C321   1.397       .  A
C320        F325   1.357       .  S
C321        C322   1.404       .  A
C321        H326   1.083       .  S
C322        C323   1.407       .  A
C323        C324   1.402       .  A
C323        F327   1.357       .  S
C324        H328   1.083       .  S
C329        C330   1.404       .  A
C329        C334   1.398       .  A
C329        H339   1.083       .  S
C330        C335   1.485       .  S
C330        C331   1.407       .  A
C331        C332   1.399       .  A
C331        F336   1.358       .  S
C332        C333   1.405       .  A
C332        H337   1.083       .  S
C333        C334   1.409       .  A
C334        F338   1.357       .  S
C335        C340   1.403       .  A
C335        C344   1.402       .  A
C340        C341   1.396       .  A
C340        F345   1.358       .  S
C341        C342   1.415       .  A
C341        H346   1.083       .  S
C342        C343   1.421       .  A
C343        C344   1.400       .  A
C343        F347   1.355       .  S
C344        H348   1.083       .  S
C349        C350   1.402       .  A
C349        C354   1.401       .  A
C349        H359   1.083       .  S
C350        C355   1.488       .  S
C350        C351   1.405       .  A
C351        C352   1.396       .  A
C351        F356   1.358       .  S
C352        C353   1.415       .  A
C352        H357   1.079       .  S
C353        C354   1.419       .  A
C354        F358   1.357       .  S
C355        C360   1.410       .  A
C355        C364   1.404       .  A
C360        C361   1.403       .  A
C360        F365   1.358       .  S
C361        C362   1.405       .  A
C361        H366   1.083       .  S
C362        C363   1.407       .  A
C363        C364   1.396       .  A
C363        F367   1.357       .  S
C364        H368   1.083       .  S
C369        C370   1.403       .  A
C369        C374   1.397       .  A
C369        H379   1.082       .  S
C370        C375   1.491       .  S
C370        C371   1.406       .  A
C371        C372   1.400       .  A
C371        F376   1.357       .  S
C372        C373   1.416       .  A
C372        H377   1.079       .  S
C373        C374   1.419       .  A
C374        F378   1.357       .  S
C375        C380   1.409       .  A
C375        C384   1.406       .  A
C380        C381   1.399       .  A
C380        F385   1.357       .  S
C381        C382   1.405       .  A
C381        H386   1.083       .  S
C382        C383   1.408       .  A
C383        C384   1.400       .  A
C383        F387   1.357       .  S
C384        H388   1.083       .  S
C389        C390   1.400       .  A
C389        C394   1.395       .  A
C389        H399   1.083       .  S
C390        C395   1.484       .  S
C390        C391   1.404       .  A
C391        C392   1.400       .  A
C391        F396   1.357       .  S
C392        C393   1.415       .  A
C392        H397   1.079       .  S
C393        C394   1.419       .  A
C394        F398   1.357       .  S
C395        C400   1.407       .  A
C395        C404   1.404       .  A
C400        C401   1.399       .  A
C400        F405   1.358       .  S
C401        C402   1.406       .  A
C401        H406   1.083       .  S
C402        C403   1.409       .  A
C403        C404   1.399       .  A
C403        F407   1.357       .  S
C404        H408   1.083       .  S
C409        C410   1.399       .  A
C409        C414   1.399       .  A
C409        H419   1.083       .  S
C410        C415   1.481       .  S
C410        C411   1.402       .  A
C411        C412   1.396       .  A
C411        F416   1.357       .  S
C412        C413   1.415       .  A
C412        H417   1.082       .  S
C413        C414   1.425       .  A
C414        F418   1.355       .  S
C415        C420   1.408       .  A
C415        C424   1.404       .  A
C420        C421   1.400       .  A
C420        F425   1.357       .  S
C421        C422   1.400       .  A
C421        H426   1.083       .  S
C422        C423   1.402       .  A
C423        C424   1.397       .  A
C423        F427   1.358       .  S
C424        H428   1.083       .  S
C429        C430   1.402       .  A
C429        C434   1.397       .  A
C429        H439   1.083       .  S
C430        C435   1.473       .  S
C430        C431   1.403       .  A
C431        C432   1.396       .  A
C431        F436   1.358       .  S
C432        C433   1.405       .  A
C432        H437   1.083       .  S
C433        C434   1.408       .  A
C434        F438   1.357       .  S
C435        C440   1.401       .  A
C435        C444   1.398       .  A
C440        C441   1.394       .  A
C440        F445   1.358       .  S
C441        C442   1.415       .  A
C441        H446   1.080       .  S
C442        C443   1.419       .  A
C443        C444   1.396       .  A
C443        F447   1.357       .  S
C444        H448   1.083       .  S
C449        C450   1.406       .  A
C449        C454   1.397       .  A
C449        H459   1.082       .  S
C450        C455   1.489       .  S
C450        C451   1.409       .  A
C451        C452   1.399       .  A
C451        F456   1.358       .  S
C452        C453   1.405       .  A
C452        H457   1.083       .  S
C453        C454   1.407       .  A
C454        F458   1.357       .  S
C455        C460   1.405       .  A
C455        C464   1.403       .  A
C460        C461   1.396       .  A
C460        F465   1.358       .  S
C461        C462   1.416       .  A
C461        H466   1.080       .  S
C462        C463   1.419       .  A
C463        C464   1.397       .  A
C463        F467   1.357       .  S
C464        H468   1.084       .  S
C469        C470   1.405       .  A
C469        C474   1.402       .  A
C469        H479   1.083       .  S
C470        C475   1.485       .  S
C470        C471   1.405       .  A
C471        C472   1.400       .  A
C471        F476   1.357       .  S
C472        C473   1.406       .  A
C472        H477   1.083       .  S
C473        C474   1.409       .  A
C474        F478   1.357       .  S
C475        C480   1.404       .  A
C475        C484   1.399       .  A
C480        C481   1.400       .  A
C480        F485   1.357       .  S
C481        C482   1.416       .  A
C481        H486   1.079       .  S
C482        C483   1.421       .  A
C483        C484   1.399       .  A
C483        F487   1.356       .  S
C484        H488   1.083       .  S
C489        C490   1.400       .  A
C489        C494   1.399       .  A
C489        H499   1.083       .  S
C490        C495   1.482       .  S
C490        C491   1.402       .  A
C491        C492   1.396       .  A
C491        F496   1.357       .  S
C492        C493   1.414       .  A
C492        H497   1.082       .  S
C493        C494   1.424       .  A
C494        F498   1.356       .  S
C495        C500   1.406       .  A
C495        C504   1.404       .  A
C500        C501   1.398       .  A
C500        F505   1.357       .  S
C501        C502   1.406       .  A
C501        H506   1.083       .  S
C502        C503   1.408       .  A
C503        C504   1.398       .  A
C503        F507   1.357       .  S
C504        H508   1.083       .  S
C509        C510   1.402       .  A
C509        C514   1.397       .  A
C509        H519   1.083       .  S
C510        C515   1.489       .  S
C510        C511   1.406       .  A
C511        C512   1.396       .  A
C511        F516   1.358       .  S
C512        C513   1.413       .  A
C512        H517   1.082       .  S
C513        C514   1.421       .  A
C514        F518   1.356       .  S
C515        C520   1.411       .  A
C515        C524   1.407       .  A
C520        C521   1.399       .  A
C520        F525   1.357       .  S
C521        C522   1.400       .  A
C521        H526   1.083       .  S
C522        C523   1.403       .  A
C523        C524   1.396       .  A
C523        F527   1.358       .  S
C524        H528   1.082       .  S
C529        C530   1.404       .  A
C529        C534   1.398       .  A
C529        H539   1.083       .  S
C530        C535   1.487       .  S
C530        C531   1.407       .  A
C531        C532   1.401       .  A
C531        F536   1.357       .  S
C532        C533   1.406       .  A
C532        H537   1.083       .  S
C533        C534   1.410       .  A
C534        F538   1.357       .  S
C535        C540   1.404       .  A
C535        C544   1.401       .  A
C540        C541   1.399       .  A
C540        F545   1.358       .  S
C541        C542   1.416       .  A
C541        H546   1.078       .  S
C542        C543   1.419       .  A
C543        C544   1.398       .  A
C543        F547   1.357       .  S
C544        H548   1.082       .  S
C549        C550   1.404       .  A
C549        C554   1.401       .  A
C549        H559   1.083       .  S
C550        C555   1.484       .  S
C550        C551   1.405       .  A
C551        C552   1.401       .  A
C551        F556   1.358       .  S
C552        C553   1.408       .  A
C552        H557   1.083       .  S
C553        C554   1.408       .  A
C554        F558   1.357       .  S
C555        C560   1.402       .  A
C555        C564   1.400       .  A
C560        C561   1.399       .  A
C560        F565   1.358       .  S
C561        C562   1.417       .  A
C561        H566   1.079       .  S
C562        C563   1.420       .  A
C563        C564   1.400       .  A
C563        F567   1.357       .  S
C564        H568   1.083       .  S
C569        C570   1.405       .  A
C569        C574   1.398       .  A
C569        H579   1.083       .  S
C570        C575   1.487       .  S
C570        C571   1.408       .  A
C571        C572   1.400       .  A
C571        F576   1.357       .  S
C572        C573   1.405       .  A
C572        H577   1.083       .  S
C573        C574   1.408       .  A
C574        F578   1.357       .  S
C575        C580   1.404       .  A
C575        C584   1.401       .  A
C580        C581   1.398       .  A
C580        F585   1.358       .  S
C581        C582   1.417       .  A
C581        H586   1.083       .  S
C582        C583   1.422       .  A
C583        C584   1.397       .  A
C583        F587   1.355       .  S
C584        H588   1.083       .  S
C589        C590   1.399       .  A
C589        C594   1.397       .  A
C589        H599   1.083       .  S
C590        C595   1.476       .  S
C590        C591   1.400       .  A
C591        C592   1.393       .  A
C591        F596   1.358       .  S
C592        C593   1.415       .  A
C592        H597   1.083       .  S
C593        C594   1.422       .  A
C594        F598   1.355       .  S
C595        C600   1.404       .  A
C595        C604   1.404       .  A
C600        C601   1.394       .  A
C600        F605   1.358       .  S
C601        C602   1.404       .  A
C601        H606   1.082       .  S
C602        C603   1.408       .  A
C603        C604   1.398       .  A
C603        F607   1.357       .  S
C604        H608   1.083       .  S
C609        C610   1.403       .  A
C609        C614   1.399       .  A
C609        H619   1.083       .  S
C610        C615   1.494       .  S
C610        C611   1.408       .  A
C611        C612   1.398       .  A
C611        F616   1.357       .  S
C612        C613   1.413       .  A
C612        H617   1.078       .  S
C613        C614   1.420       .  A
C614        F618   1.357       .  S
C615        C620   1.412       .  A
C615        C624   1.406       .  A
C620        C621   1.402       .  A
C620        F625   1.357       .  S
C621        C622   1.404       .  A
C621        H626   1.083       .  S
C622        C623   1.408       .  A
C623        C624   1.397       .  A
C623        F627   1.357       .  S
C624        H628   1.082       .  S
C629        C630   1.406       .  A
C629        C634   1.400       .  A
C629        H639   1.083       .  S
C630        C635   1.486       .  S
C630        C631   1.406       .  A
C631        C632   1.398       .  A
C631        F636   1.357       .  S
C632        C633   1.406       .  A
C632        H637   1.083       .  S
C633        C634   1.408       .  A
C634        F638   1.357       .  S
C635        C640   1.403       .  A
C635        C644   1.402       .  A
C640        C641   1.399       .  A
C640        F645   1.358       .  S
C641        C642   1.417       .  A
C641        H646   1.079       .  S
C642        C643   1.417       .  A
C643        C644   1.397       .  A
C643        F647   1.357       .  S
C644        H648   1.083       .  S
C649        C650   1.403       .  A
C649        C654   1.398       .  A
C649        H659   1.084       .  S
C650        C655   1.486       .  S
C650        C651   1.408       .  A
C651        C652   1.400       .  A
C651        F656   1.357       .  S
C652        C653   1.405       .  A
C652        H657   1.084       .  S
C653        C654   1.411       .  A
C654        F658   1.357       .  S
C655        C660   1.403       .  A
C655        C664   1.402       .  A
C660        C661   1.398       .  A
C660        F665   1.357       .  S
C661        C662   1.416       .  A
C661        H666   1.080       .  S
C662        C663   1.418       .  A
C663        C664   1.398       .  A
C663        F667   1.356       .  S
C664        H668   1.083       .  S
C669        C670   1.402       .  A
C669        C674   1.401       .  A
C669        H679   1.083       .  S
C670        C675   1.479       .  S
C670        C671   1.404       .  A
C671        C672   1.400       .  A
C671        F676   1.357       .  S
C672        C673   1.405       .  A
C672        H677   1.083       .  S
C673        C674   1.410       .  A
C674        F678   1.357       .  S
C675        C680   1.400       .  A
C675        C684   1.399       .  A
C680        C681   1.398       .  A
C680        F685   1.358       .  S
C681        C682   1.418       .  A
C681        H686   1.079       .  S
C682        C683   1.420       .  A
C683        C684   1.400       .  A
C683        F687   1.357       .  S
C684        H688   1.083       .  S
C689        C690   1.408       .  A
C689        C694   1.403       .  A
C689        H699   1.082       .  S
C690        C695   1.491       .  S
C690        C691   1.408       .  A
C691        C692   1.398       .  A
C691        F696   1.357       .  S
C692        C693   1.404       .  A
C692        H697   1.083       .  S
C693        C694   1.407       .  A
C694        F698   1.357       .  S
C695        C700   1.404       .  A
C695        C704   1.404       .  A
C700        C701   1.397       .  A
C700        F705   1.357       .  S
C701        C702   1.417       .  A
C701        H706   1.083       .  S
C702        C703   1.421       .  A
C703        C704   1.400       .  A
C703        F707   1.355       .  S
C704        H708   1.083       .  S
C709        C710   1.400       .  A
C709        C714   1.400       .  A
C709        H719   1.083       .  S
C710        C715   1.475       .  S
C710        C711   1.403       .  A
C711        C712   1.400       .  A
C711        F716   1.357       .  S
C712        C713   1.406       .  A
C712        H717   1.083       .  S
C713        C714   1.413       .  A
C714        F718   1.357       .  S
C715        C720   1.399       .  A
C715        C724   1.398       .  A
C720        C721   1.397       .  A
C720        F725   1.358       .  S
C721        C722   1.417       .  A
C721        H726   1.079       .  S
C722        C723   1.421       .  A
C723        C724   1.400       .  A
C723        F727   1.357       .  S
C724        H728   1.083       .  S
C729        C730   1.399       .  A
C729        C734   1.400       .  A
C729        H739   1.084       .  S
C730        C735   1.482       .  S
C730        C731   1.401       .  A
C731        C732   1.401       .  A
C731        F736   1.357       .  S
C732        C733   1.417       .  A
C732        H737   1.083       .  S
C733        C734   1.422       .  A
C734        F738   1.356       .  S
C735        C740   1.403       .  A
C735        C744   1.403       .  A
C740        C741   1.401       .  A
C740        F745   1.357       .  S
C741        C742   1.408       .  A
C741        H746   1.083       .  S
C742        C743   1.411       .  A
C743        C744   1.403       .  A
C743        F747   1.357       .  S
C744        H748   1.084       .  S
C749        C750   1.404       .  A
C749        C754   1.396       .  A
C749        H759   1.083       .  S
C750        C755   1.484       .  S
C750        C751   1.407       .  A
C751        C752   1.398       .  A
C751        F756   1.357       .  S
C752        C753   1.405       .  A
C752        H757   1.083       .  S
C753        C754   1.408       .  A
C754        F758   1.357       .  S
C755        C760   1.404       .  A
C755        C764   1.400       .  A
C760        C761   1.395       .  A
C760        F765   1.357       .  S
C761        C762   1.412       .  A
C761        H766   1.082       .  S
C762        C763   1.423       .  A
C763        C764   1.397       .  A
C763        F767   1.356       .  S
C764        H768   1.083       .  S
C769        C770   1.402       .  A
C769        C774   1.398       .  A
C769        H779   1.084       .  S
C770        C775   1.475       .  S
C770        C771   1.403       .  A
C771        C772   1.398       .  A
C771        F776   1.358       .  S
C772        C773   1.406       .  A
C772        H777   1.084       .  S
C773        C774   1.409       .  A
C774        F778   1.357       .  S
C775        C780   1.399       .  A
C775        C784   1.398       .  A
C780        C781   1.397       .  A
C780        F785   1.357       .  S
C781        C782   1.417       .  A
C781        H786   1.083       .  S
C782        C783   1.422       .  A
C783        C784   1.396       .  A
C783        F787   1.355       .  S
C784        H788   1.084       .  S
C789        C790   1.404       .  A
C789        C794   1.396       .  A
C789        H799   1.084       .  S
C790        C795   1.479       .  S
C790        C791   1.407       .  A
C791        C792   1.395       .  A
C791        F796   1.357       .  S
C792        C793   1.403       .  A
C792        H797   1.084       .  S
C793        C794   1.405       .  A
C794        F798   1.358       .  S
C795        C800   1.401       .  A
C795        C804   1.400       .  A
C800        C801   1.395       .  A
C800        F805   1.358       .  S
C801        C802   1.417       .  A
C801        H806   1.078       .  S
C802        C803   1.419       .  A
C803        C804   1.395       .  A
C803        F807   1.357       .  S
C804        H808   1.083       .  S
C809        C810   1.405       .  A
C809        C814   1.397       .  A
C809        H819   1.083       .  S
C810        C815   1.487       .  S
C810        C811   1.409       .  A
C811        C812   1.400       .  A
C811        F816   1.357       .  S
C812        C813   1.404       .  A
C812        H817   1.083       .  S
C813        C814   1.407       .  A
C814        F818   1.357       .  S
C815        C820   1.404       .  A
C815        C824   1.402       .  A
C820        C821   1.397       .  A
C820        F825   1.357       .  S
C821        C822   1.415       .  A
C821        H826   1.082       .  S
C822        C823   1.421       .  A
C823        C824   1.398       .  A
C823        F827   1.356       .  S
C824        H828   1.083       .  S
