geometry optimzed in LAMMPS
_audit_creation_date              2020-11-30 
_audit_creation_method            'lammps2cif' 
_symmetry_space_group_name_H-M    'P1' 
_symmetry_Int_Tables_number       1 
_symmetry_cell_setting            triclinic 
loop_ 
_symmetry_equiv_pos_as_xyz 
  x,y,z 
_cell_length_a                    26.04606802 
_cell_length_b                    25.966721166108616 
_cell_length_c                    25.981296828901794 
_cell_angle_alpha                 90.02085502610564 
_cell_angle_beta                  90.0663954959809 
_cell_angle_gamma                 90.01634117825405 
loop_ 
_atom_site_label 
_atom_site_type_symbol 
_atom_site_fract_x 
_atom_site_fract_y 
_atom_site_fract_z 
_atom_site_charge 
N1          N  0.99300937  0.49956089  0.58043039    -0.36300
N2          N  0.99594542  0.41980351  0.50162389    -0.56900
N3          N  0.00574417  0.49927465  0.42325363    -0.36300
N4          N  0.99741738  0.57877927  0.50197510    -0.56900
C5          C  0.98197019  0.45748674  0.60889922     0.27300
C6          C  0.98028229  0.54126582  0.60884876     0.27300
C7          C  0.99717645  0.45740988  0.39330322     0.27300
C8          C  0.99919133  0.54150486  0.39337687     0.27300
C9          C  0.00221371  0.39003202  0.54383166     0.35900
C10         C  0.00642595  0.38957025  0.46058936     0.35900
C11         C  0.00122458  0.60890755  0.54424004     0.35900
C12         C  0.00862823  0.60904689  0.46123256     0.35900
C13         C  0.96231780  0.47250703  0.65615625    -0.21600
C14         C  0.96098379  0.52543105  0.65602744    -0.21600
C15         C  0.98575692  0.47326807  0.34363600    -0.21600
C16         C  0.98749162  0.52617343  0.34355892    -0.21600
C17         C  0.01604731  0.34051641  0.52954876    -0.22600
C18         C  0.01863131  0.34020117  0.47679352    -0.22600
C19         C  0.01459548  0.65862943  0.53026668    -0.22600
C20         C  0.01881910  0.65884109  0.47767516    -0.22600
C21         C  0.99306247  0.40613303  0.59495368    -0.18000
C22         C  0.98908288  0.59314644  0.59486835    -0.18000
C23         C  0.00599623  0.59337447  0.40916340    -0.18000
C24         C  0.00284519  0.40524882  0.40856797    -0.18000
H25         H  0.95077330  0.44789492  0.68771041     0.14900
H26         H  0.94814811  0.54950866  0.68750025     0.14900
H27         H  0.97780730  0.44922182  0.31054096     0.14900
H28         H  0.98116967  0.55041346  0.31030120     0.14900
H29         H  0.02325400  0.30792702  0.55449608     0.13200
H30         H  0.02847705  0.30737494  0.45310404     0.13200
H31         H  0.01979632  0.69160629  0.55522054     0.13200
H32         H  0.02778301  0.69210992  0.45429676     0.13200
H33         H  0.01416916  0.49972595  0.54663148     0.26500
H34         H  0.02075585  0.49898123  0.46024272     0.26500
O35         O  0.00047483  0.14697092  0.08419771    -0.79800
O36         O  0.99960874  0.85396885  0.08494887    -0.81400
O37         O  0.91233665  0.00094733  0.14427987    -0.78400
O38         O  0.08092118  0.99986202  0.14755990    -0.76800
O39         O  0.14435543  0.99747362  0.08695663    -0.78600
O40         O  0.85207512  0.00194299  0.08019627    -0.79500
O41         O  0.99923097  0.91536261  0.14747652    -0.80800
O42         O  0.99794777  0.08410508  0.14561963    -0.81100
Eu43       Eu  0.99767036  0.99932674  0.10363900     2.39200
O44         O  0.05123655  0.94683223  0.05282649    -0.88600
O45         O  0.94701001  0.05191518  0.05029709    -0.92200
C46         C  0.99966928  0.13169128  0.13150238     1.02500
C47         C  0.00018040  0.86788465  0.13261967     1.02300
C48         C  0.86546252  0.00239171  0.12799683     1.02200
C49         C  0.12851380  0.99870178  0.13410355     1.00100
H50         H  0.92389697  0.92608179  0.07187825     0.29800
O51         O  0.94571288  0.94744435  0.05075330    -1.01000
H52         H  0.07278683  0.07216421  0.07438295     0.29900
O53         O  0.05162978  0.05088233  0.05249197    -1.03500
O54         O  0.99495855  0.85314081  0.91596433    -0.80800
O55         O  0.00049508  0.14606228  0.91535860    -0.80300
O56         O  0.85291104  0.91530813  0.99599271    -0.78700
O57         O  0.14553487  0.91324036  0.99691696    -0.82100
O58         O  0.14773396  0.08243111  0.00254866    -0.79900
O59         O  0.85407824  0.08542424  0.99642471    -0.78600
O60         O  0.91990853  0.00056509  0.85026223    -0.80100
O61         O  0.08786791  0.99963460  0.85378907    -0.82000
O62         O  0.85602490  0.99953392  0.91013193    -0.78800
O63         O  0.14911198  0.00125346  0.91692789    -0.81500
O64         O  0.91479858  0.85329019  0.99805339    -0.77200
O65         O  0.91678984  0.14703641  0.00053524    -0.77200
O66         O  0.08619129  0.14504740  0.00059964    -0.76900
O67         O  0.08266371  0.85172544  0.99639475    -0.80400
O68         O  0.99793201  0.91478717  0.85325124    -0.79800
O69         O  0.00125676  0.08425713  0.85248969    -0.78100
Eu70       Eu  0.99913950  0.89549938  0.99977653     2.39800
Eu71       Eu  0.00095923  0.10394126  0.99979224     2.39600
Eu72       Eu  0.89557408  0.00014343  0.99655207     2.38400
Eu73       Eu  0.10456499  0.99851339  0.00084680     2.39900
Eu74       Eu  0.00259743  0.99982492  0.89488108     2.39800
O75         O  0.05407464  0.05196060  0.94799734    -0.92500
O76         O  0.94902225  0.94802607  0.94600352    -0.91400
C77         C  0.99453496  0.86756778  0.86855310     1.02600
C78         C  0.99965276  0.13149049  0.86788353     1.01400
C79         C  0.86744051  0.86769025  0.99702818     1.00700
C80         C  0.13013599  0.86602469  0.99489817     1.02800
C81         C  0.13341803  0.13001865  0.00220184     1.01700
C82         C  0.86933009  0.13272988  0.99834639     1.00500
C83         C  0.87217690  0.99986655  0.86305142     1.00600
C84         C  0.13503321  0.00044865  0.86919223     1.03200
H85         H  0.92848796  0.07382919  0.92445162     0.30600
O86         O  0.94948081  0.05224260  0.94610677    -1.04700
H87         H  0.07387868  0.92512467  0.92608941     0.32600
O88         O  0.05283289  0.94665998  0.94772388    -1.07300
N89         N  0.49860286  0.00235555  0.41900152    -0.36300
N90         N  0.42152550  0.00686533  0.49959086    -0.56900
N91         N  0.50259720  0.00152753  0.57634568    -0.36300
N92         N  0.57975783  0.00181664  0.49552927    -0.56900
C93         C  0.45632951  0.01451227  0.39130333     0.27300
C94         C  0.53985601  0.01254202  0.38911801     0.27300
C95         C  0.46193109  0.01387801  0.60633393     0.27300
C96         C  0.54558401  0.01104126  0.60408478     0.27300
C97         C  0.39053581  0.99840788  0.45866742     0.35900
C98         C  0.39260323  0.99905505  0.54206029     0.35900
C99         C  0.60834793  0.99323308  0.45301197     0.35900
C100        C  0.61055722  0.99242513  0.53633320     0.35900
C101        C  0.47087245  0.03242300  0.34318755    -0.21600
C102        C  0.52362208  0.03113560  0.34179581    -0.21600
C103        C  0.47926610  0.03111713  0.65377874    -0.21600
C104        C  0.53205070  0.02935140  0.65236229    -0.21600
C105        C  0.34160610  0.98554301  0.47523075    -0.22600
C106        C  0.34287644  0.98615343  0.52808748    -0.22600
C107        C  0.65767670  0.97870314  0.46682507    -0.22600
C108        C  0.65906045  0.97810577  0.51965581    -0.22600
C109        C  0.40502835  0.00551919  0.40669092    -0.18000
C110        C  0.59150080  0.00184623  0.40202439    -0.18000
C111        C  0.59651068  0.00023694  0.58829900    -0.18000
C112        C  0.40963118  0.00690502  0.59317726    -0.18000
H113        H  0.44601397  0.04425308  0.31194604     0.14900
H114        H  0.54729727  0.04184551  0.30930292     0.14900
H115        H  0.45624686  0.04323137  0.68625697     0.14900
H116        H  0.55755861  0.03977828  0.68359225     0.14900
H117        H  0.30830117  0.97715058  0.45173558     0.13200
H118        H  0.31076697  0.97841206  0.55333346     0.13200
H119        H  0.68949929  0.97001219  0.44151173     0.13200
H120        H  0.69219179  0.96883893  0.54306221     0.13200
H121        H  0.49900074  0.98209330  0.45346673     0.26500
H122        H  0.50100536  0.98195741  0.54150888     0.26500
N123        N  0.50190626  0.42094794  0.00410345    -0.36300
N124        N  0.41999110  0.49755321  0.00032919    -0.56900
N125        N  0.49661400  0.57881065  0.00517428    -0.36300
N126        N  0.57845429  0.50202173  0.00326247    -0.56900
C127        C  0.46111134  0.39068120  0.99287094     0.27300
C128        C  0.54482595  0.39306556  0.99471078     0.27300
C129        C  0.45409135  0.60688078  0.99473993     0.27300
C130        C  0.53773901  0.60926909  0.99595665     0.27300
C131        C  0.39127441  0.45477942  0.00757093     0.35900
C132        C  0.38850074  0.53823499  0.00806222     0.35900
C133        C  0.60961183  0.46135473  0.01228927     0.35900
C134        C  0.60681878  0.54472896  0.01206297     0.35900
C135        C  0.47827977  0.34284360  0.97651122    -0.21600
C136        C  0.53108888  0.34436733  0.97762101    -0.21600
C137        C  0.46841380  0.65598851  0.97935963    -0.21600
C138        C  0.52117033  0.65751903  0.98023501    -0.21600
C139        C  0.34117991  0.46836335  0.01942680    -0.22600
C140        C  0.33942925  0.52121764  0.01974811    -0.22600
C141        C  0.65803536  0.47834790  0.02656808    -0.22600
C142        C  0.65631299  0.53117566  0.02622795    -0.22600
C143        C  0.40889835  0.40365758  0.00083155    -0.18000
C144        C  0.59588998  0.40919053  0.00467701    -0.18000
C145        C  0.58969786  0.59579232  0.00440160    -0.18000
C146        C  0.40269691  0.59048128  0.00183533    -0.18000
H147        H  0.45513605  0.30994758  0.96565741     0.14900
H148        H  0.55646784  0.31288915  0.96775412     0.14900
H149        H  0.44345078  0.68769783  0.96913091     0.14900
H150        H  0.54463584  0.69061845  0.97087012     0.14900
H151        H  0.30912689  0.44287947  0.02677312     0.13200
H152        H  0.30579055  0.54442998  0.02744876     0.13200
H153        H  0.69129420  0.45514410  0.03583175     0.13200
H154        H  0.68795513  0.55670575  0.03514913     0.13200
H155        H  0.50041062  0.45604260  0.02317257     0.26500
H156        H  0.49743399  0.54312932  0.02311171     0.26500
C157        C  0.79450529  0.74025739  0.01366661    -0.22100
C158        C  0.74534741  0.75450116  0.99740761     0.09800
C159        C  0.73613539  0.80534881  0.98109691     0.10200
C160        C  0.77676974  0.84090304  0.98077201    -0.17100
C161        C  0.82659713  0.82713381  0.99705067    -0.27500
C162        C  0.83527134  0.77568899  0.01407427     0.18600
C163        C  0.70419694  0.71514820  0.99798605     0.12500
C164        C  0.68331676  0.82207587  0.96436236    -0.11800
H165        H  0.76932156  0.87980789  0.96769150     0.12800
C166        C  0.88644076  0.75752771  0.03440675    -0.22700
H167        H  0.80082791  0.70100547  0.02641498     0.08400
C168        C  0.69597883  0.68227231  0.95553377     0.04800
C169        C  0.65823733  0.64384404  0.95870149    -0.19900
C170        C  0.62877847  0.63753981  0.00342999    -0.12200
C171        C  0.63692912  0.67062285  0.04593414     0.13500
C172        C  0.67456663  0.70915473  0.04259039    -0.22600
C173        C  0.72728624  0.68762427  0.90712390    -0.05700
H174        H  0.65171293  0.61838513  0.92626918     0.15000
C175        C  0.60726390  0.66580975  0.09547216    -0.15900
H176        H  0.68131637  0.73432219  0.07522073     0.09300
H177        H  0.91573087  0.75865897  0.00351170     0.07200
H178        H  0.88472359  0.71717997  0.04850344     0.08400
H179        H  0.89855513  0.78210601  0.06722490     0.07500
H180        H  0.65582469  0.81684598  0.99656909     0.02300
H181        H  0.67049784  0.79862047  0.93102312     0.02800
H182        H  0.68259808  0.86323970  0.95277689     0.06300
H183        H  0.71594954  0.65880398  0.87762367     0.05300
H184        H  0.76859017  0.68195522  0.91605573    -0.00500
H185        H  0.72176194  0.72659387  0.89048631     0.01000
H186        H  0.63434953  0.65890413  0.12777380     0.04700
H187        H  0.57918667  0.63374186  0.09502207     0.06600
H188        H  0.58598686  0.70211249  0.10283216     0.07500
C189        C  0.68056776  0.29509854  0.04268013    -0.22100
C190        C  0.71699753  0.29546372  0.00300162     0.09800
C191        C  0.71423716  0.33371484  0.96451524     0.10200
C192        C  0.67426937  0.37002563  0.96591337    -0.17100
C193        C  0.63750420  0.36957414  0.00545916    -0.27500
C194        C  0.64123888  0.33201921  0.04482855     0.18600
C195        C  0.75685265  0.25455916  0.00182228     0.12500
C196        C  0.75386652  0.33657326  0.92244040    -0.11800
H197        H  0.67167281  0.39910955  0.93610409     0.12800
C198        C  0.60503459  0.33016717  0.09001302    -0.22700
H199        H  0.68299722  0.26584921  0.07236423     0.08400
C200        C  0.80016663  0.25597268  0.03447896     0.04800
C201        C  0.83618653  0.21574306  0.03239311    -0.19900
C202        C  0.82976095  0.17387163  0.99866093    -0.12200
C203        C  0.78663026  0.17299372  0.96536567     0.13500
C204        C  0.75072280  0.21332786  0.96752551    -0.22600
C205        C  0.80867310  0.30020505  0.07102573    -0.05700
H206        H  0.86934223  0.21672037  0.05764906     0.15000
C207        C  0.77901528  0.13072600  0.92629192    -0.15900
H208        H  0.71752477  0.21278140  0.94232258     0.09300
H209        H  0.62735942  0.33316953  0.12632809     0.07200
H210        H  0.58394347  0.29300285  0.08978499     0.08400
H211        H  0.57655472  0.36182942  0.08993890     0.07500
H212        H  0.75317617  0.30067799  0.89926248     0.02300
H213        H  0.79259948  0.34149162  0.93967132     0.02800
H214        H  0.74671985  0.36951078  0.89612751     0.06300
H215        H  0.84487276  0.29568593  0.09321117     0.05300
H216        H  0.77646878  0.30247979  0.09886066    -0.00500
H217        H  0.81092649  0.33681339  0.04907164     0.01000
H218        H  0.74523974  0.13814571  0.90122203     0.04700
H219        H  0.77237800  0.09348498  0.94608812     0.06600
H220        H  0.81340293  0.12774371  0.90122017     0.07500
C221        C  0.25077865  0.79003213  0.96065834    -0.22100
C222        C  0.24351581  0.74564772  0.99048381     0.09800
C223        C  0.19810523  0.73978100  0.01924978     0.10200
C224        C  0.16165399  0.77937724  0.01907737    -0.17100
C225        C  0.16953638  0.82500231  0.99123778    -0.27500
C226        C  0.21411103  0.82978346  0.96028696     0.18600
C227        C  0.28436840  0.70612123  0.99225814     0.12500
C228        C  0.18817121  0.69173511  0.05020183    -0.11800
H229        H  0.12719027  0.77500014  0.04162905     0.12800
C230        C  0.22242421  0.87546876  0.92538992    -0.22700
H231        H  0.28542957  0.79361595  0.93786541     0.08400
C232        C  0.28808788  0.66728641  0.95453229     0.04800
C233        C  0.32698776  0.63010781  0.95867151    -0.19900
C234        C  0.36134703  0.63020171  0.00041278    -0.12200
C235        C  0.35655279  0.66850388  0.03895656     0.13500
C236        C  0.31859618  0.70643311  0.03387910    -0.22600
C237        C  0.25055796  0.66475767  0.91047224    -0.05700
H238        H  0.33059642  0.60062638  0.92935236     0.15000
C239        C  0.39000309  0.67002544  0.08632070    -0.15900
H240        H  0.31494526  0.73594978  0.06319643     0.09300
H241        H  0.18899799  0.88002786  0.89918854     0.07200
H242        H  0.25726270  0.87071259  0.90123157     0.08400
H243        H  0.22760307  0.91104913  0.94843508     0.07500
H244        H  0.21841696  0.68708159  0.07996102     0.02300
H245        H  0.18838049  0.65762107  0.02443383     0.02800
H246        H  0.15039786  0.69317855  0.06996740     0.06300
H247        H  0.25853541  0.63158516  0.88469719     0.05300
H248        H  0.25293403  0.70059715  0.88732960    -0.00500
H249        H  0.21093901  0.66047407  0.92561774     0.01000
H250        H  0.41231861  0.70646382  0.08684338     0.04700
H251        H  0.41728978  0.63739595  0.08855124     0.06600
H252        H  0.36543968  0.66846144  0.12119540     0.07500
C253        C  0.20842438  0.25468206  0.02441061    -0.22100
C254        C  0.25523127  0.24260401  0.00088506     0.09800
C255        C  0.26276182  0.19323222  0.97975158     0.10200
C256        C  0.22226832  0.15759497  0.98059904    -0.17100
C257        C  0.17454669  0.16979628  0.00296091    -0.27500
C258        C  0.16805807  0.21884283  0.02628625     0.18600
C259        C  0.29582236  0.28247877  0.99924496     0.12500
C260        C  0.31365616  0.17805647  0.95680109    -0.11800
H261        H  0.22793006  0.12001593  0.96333693     0.12800
C262        C  0.11978731  0.23334283  0.05490239    -0.22700
H263        H  0.20358923  0.29247501  0.04148367     0.08400
C264        C  0.29973616  0.31712095  0.95760518     0.04800
C265        C  0.33704724  0.35612839  0.95906804    -0.19900
C266        C  0.37040784  0.36119435  0.00125767    -0.12200
C267        C  0.36671610  0.32600938  0.04273590     0.13500
C268        C  0.32944489  0.28703579  0.04109642    -0.22600
C269        C  0.26430686  0.31305796  0.91190667    -0.05700
H270        H  0.34018548  0.38299559  0.92730351     0.15000
C271        C  0.40076242  0.32888105  0.08961145    -0.15900
H272        H  0.32611165  0.26036124  0.07302733     0.09300
H273        H  0.08688039  0.23586151  0.02789006     0.07200
H274        H  0.12344910  0.27145293  0.07399751     0.08400
H275        H  0.11163982  0.20433955  0.08523893     0.07500
H276        H  0.34416957  0.18109928  0.98652982     0.02300
H277        H  0.32325147  0.20385748  0.92417955     0.02800
H278        H  0.31316621  0.13782311  0.94225932     0.06300
H279        H  0.27235146  0.34337666  0.88286924     0.05300
H280        H  0.22386071  0.31729526  0.92464539    -0.00500
H281        H  0.26909439  0.27501101  0.89305531     0.01000
H282        H  0.37665667  0.33308122  0.12457864     0.04700
H283        H  0.42782491  0.36177214  0.08873960     0.06600
H284        H  0.42350451  0.29285517  0.09280320     0.07500
C285        C  0.67834561  0.96282931  0.70420834    -0.22100
C286        C  0.71504090  0.00229403  0.70420943     0.09800
C287        C  0.71388324  0.04006345  0.66513330     0.10200
C288        C  0.67471015  0.03850813  0.62802024    -0.17100
C289        C  0.63762739  0.99923683  0.62822783    -0.27500
C290        C  0.64001586  0.96038294  0.66637253     0.18600
C291        C  0.75493119  0.00245648  0.74494878     0.12500
C292        C  0.75362497  0.08216670  0.66280142    -0.11800
H293        H  0.67296773  0.06796265  0.59851055     0.12800
C294        C  0.60353004  0.91534153  0.66782529    -0.22700
H295        H  0.68007890  0.93327096  0.73363918     0.08400
C296        C  0.74345830  0.01634369  0.79610563     0.04800
C297        C  0.78245017  0.01511026  0.83336904    -0.19900
C298        C  0.83296282  0.00022450  0.82101327    -0.12200
C299        C  0.84410783  0.98589428  0.76924605     0.13500
C300        C  0.80480630  0.98717730  0.73221138    -0.22600
C301        C  0.69017306  0.03296669  0.81135637    -0.05700
H302        H  0.77320541  0.02612902  0.87247486     0.15000
C303        C  0.89653615  0.96796882  0.75218237    -0.15900
H304        H  0.81286695  0.97589241  0.69285727     0.09300
H305        H  0.58141373  0.91620331  0.70432334     0.07200
H306        H  0.62573643  0.87888368  0.66603701     0.08400
H307        H  0.57598242  0.91504368  0.63532271     0.07500
H308        H  0.79231201  0.06519363  0.65718839     0.02300
H309        H  0.75318842  0.10461409  0.69916684     0.02800
H310        H  0.74633124  0.10908136  0.63038606     0.06300
H311        H  0.68816089  0.04386677  0.85265631     0.05300
H312        H  0.66260944  0.00103024  0.80483030    -0.00500
H313        H  0.67841005  0.06682539  0.78808553     0.01000
H314        H  0.89671283  0.95577423  0.71119239     0.04700
H315        H  0.90883080  0.93437252  0.77558308     0.06600
H316        H  0.92475767  0.99978786  0.75588675     0.07500
C317        C  0.29894537  0.04712871  0.68080658    -0.22100
C318        C  0.29602135  0.00483443  0.71429992     0.09800
C319        C  0.33113633  0.96372345  0.70836256     0.10200
C320        C  0.36789649  0.96574611  0.66883112    -0.17100
C321        C  0.37067743  0.00798574  0.63526635    -0.27500
C322        C  0.33626780  0.04963146  0.64190043     0.18600
C323        C  0.25541115  0.00411039  0.75469129     0.12500
C324        C  0.33040732  0.91806150  0.74411564    -0.11800
H325        H  0.39456830  0.93409683  0.66383164     0.12800
C326        C  0.33831181  0.09752108  0.60921920    -0.22700
H327        H  0.27195812  0.07860468  0.68518862     0.08400
C328        C  0.25694219  0.03735477  0.79778379     0.04800
C329        C  0.21752351  0.03493995  0.83475342    -0.19900
C330        C  0.17598203  0.00078429  0.82925315    -0.12200
C331        C  0.17464225  0.96749203  0.78602290     0.13500
C332        C  0.21428369  0.96966314  0.74940600    -0.22600
C333        C  0.30041332  0.07495345  0.80515791    -0.05700
H334        H  0.21872454  0.06044846  0.86777867     0.15000
C335        C  0.13240635  0.92848494  0.77890526    -0.15900
H336        H  0.21313375  0.94443186  0.71617158     0.09300
H337        H  0.34416037  0.13162883  0.63435205     0.07200
H338        H  0.30149651  0.10200714  0.58811956     0.08400
H339        H  0.36992437  0.09696734  0.58072948     0.07500
H340        H  0.29337173  0.89725637  0.74062107     0.02300
H341        H  0.33552544  0.93128365  0.78444051     0.02800
H342        H  0.36165566  0.89038442  0.73513411     0.06300
H343        H  0.29646061  0.09690928  0.84164203     0.05300
H344        H  0.30103683  0.10312165  0.77307428    -0.00500
H345        H  0.33749770  0.05391110  0.80625394     0.01000
H346        H  0.13940233  0.90332384  0.74504825     0.04700
H347        H  0.09526027  0.94837975  0.77254830     0.06600
H348        H  0.12977134  0.90348453  0.81347828     0.07500
C349        C  0.32371441  0.96889843  0.29007625    -0.22100
C350        C  0.28680139  0.00804878  0.29053446     0.09800
C351        C  0.28868438  0.04649769  0.32883590     0.10200
C352        C  0.32761755  0.04470646  0.36620801    -0.17100
C353        C  0.36434757  0.00507561  0.36628162    -0.27500
C354        C  0.36235091  0.96665175  0.32756603     0.18600
C355        C  0.24610547  0.00722192  0.25078477     0.12500
C356        C  0.24992127  0.08949940  0.32989657    -0.11800
H357        H  0.32954236  0.07432572  0.39556207     0.12800
C358        C  0.39970106  0.92237835  0.32483842    -0.22700
H359        H  0.32196620  0.93947964  0.26047893     0.08400
C360        C  0.25476916  0.02682479  0.20102692     0.04800
C361        C  0.21566554  0.02348454  0.16405104    -0.19900
C362        C  0.16805516  0.00051526  0.17542271    -0.12200
C363        C  0.15980281  0.98018878  0.22554732     0.13500
C364        C  0.19899629  0.98412214  0.26253540    -0.22600
C365        C  0.30533661  0.05122477  0.18701725    -0.05700
H366        H  0.22234286  0.03926773  0.12602857     0.15000
C367        C  0.11094261  0.95258635  0.24019072    -0.15900
H368        H  0.19321238  0.96852898  0.30080023     0.09300
H369        H  0.42187006  0.92482759  0.28842822     0.07200
H370        H  0.37823537  0.88543639  0.32538738     0.08400
H371        H  0.42717077  0.92152262  0.35736919     0.07500
H372        H  0.21071798  0.07337016  0.33446953     0.02300
H373        H  0.25183058  0.11159785  0.29337257     0.02800
H374        H  0.25710195  0.11654094  0.36225507     0.06300
H375        H  0.30565256  0.06495585  0.14653328     0.05300
H376        H  0.33677776  0.02273291  0.19159839    -0.00500
H377        H  0.31281992  0.08470471  0.21253147     0.01000
H378        H  0.11327804  0.93587469  0.27947798     0.04700
H379        H  0.10351931  0.92050129  0.21288970     0.06600
H380        H  0.07813247  0.97981844  0.24002101     0.07500
C381        C  0.67058608  0.96446006  0.28442372    -0.22100
C382        C  0.70585138  0.00517569  0.28260221     0.09800
C383        C  0.70272850  0.04532335  0.31903955     0.10200
C384        C  0.66500850  0.04318632  0.35745769    -0.17100
C385        C  0.63032656  0.00190333  0.36006645    -0.27500
C386        C  0.63284627  0.96217255  0.32280930     0.18600
C387        C  0.74686756  0.00412706  0.24324471     0.12500
C388        C  0.73956130  0.09002033  0.31765750    -0.11800
H389        H  0.66254804  0.07374176  0.38578877     0.12800
C390        C  0.59704822  0.91653827  0.32281531    -0.22700
H391        H  0.67308838  0.93383388  0.25614601     0.08400
C392        C  0.79143823  0.97407523  0.25010395     0.04800
C393        C  0.82962751  0.97453360  0.21205112    -0.19900
C394        C  0.82403820  0.00405311  0.16704891    -0.12200
C395        C  0.77940697  0.03474196  0.16064237     0.13500
C396        C  0.74137240  0.03422456  0.19889617    -0.22600
C397        C  0.79878318  0.94192844  0.29782417    -0.05700
H398        H  0.86376182  0.95119812  0.21718374     0.15000
C399        C  0.77225417  0.06956123  0.11468795    -0.15900
H400        H  0.70714644  0.05754636  0.19437693     0.09300
H401        H  0.61978360  0.88046408  0.32537708     0.07200
H402        H  0.57458219  0.91611623  0.28646353     0.08400
H403        H  0.56969377  0.91677343  0.35542108     0.07500
H404        H  0.73548517  0.11097688  0.28064646     0.02300
H405        H  0.77956646  0.07575767  0.32145411     0.02800
H406        H  0.73222221  0.11769662  0.34941137     0.06300
H407        H  0.83616605  0.92136065  0.29751050     0.05300
H408        H  0.76777474  0.91272711  0.30056446    -0.00500
H409        H  0.79766206  0.96701745  0.33242633     0.01000
H410        H  0.73716247  0.09358062  0.11828613     0.04700
H411        H  0.76813923  0.04635884  0.07906521     0.06600
H412        H  0.80563653  0.09593478  0.11105024     0.07500
C413        C  0.03741747  0.32543325  0.70869459    -0.22100
C414        C  0.99613617  0.29120780  0.71376253     0.09800
C415        C  0.95356067  0.29519834  0.68032159     0.10200
C416        C  0.95348306  0.33321893  0.64205918    -0.17100
C417        C  0.99506582  0.36701868  0.63649652    -0.27500
C418        C  0.03760982  0.36319203  0.67018289     0.18600
C419        C  0.99854659  0.25060295  0.75354439     0.12500
C420        C  0.90874089  0.25870347  0.68434209    -0.11800
H421        H  0.92103727  0.33652642  0.61610384     0.12800
C422        C  0.08404753  0.39762429  0.66604366    -0.22700
H423        H  0.06996835  0.32220519  0.73455884     0.08400
C424        C  0.02942577  0.20644183  0.74707942     0.04800
C425        C  0.02858535  0.16784297  0.78480778    -0.19900
C426        C  0.99677294  0.17201241  0.82821438    -0.12200
C427        C  0.96391851  0.21525554  0.83319936     0.13500
C428        C  0.96677429  0.25485821  0.79675624    -0.22600
C429        C  0.06248098  0.19965865  0.70000146    -0.05700
H430        H  0.05315669  0.13441161  0.78058987     0.15000
C431        C  0.92309401  0.21965570  0.87418795    -0.15900
H432        H  0.94226218  0.28837197  0.80081366     0.09300
H433        H  0.11882528  0.37367216  0.65995619     0.07200
H434        H  0.08866678  0.41982704  0.70228361     0.08400
H435        H  0.08161232  0.42537539  0.63375419     0.07500
H436        H  0.88978298  0.26308813  0.72230953     0.02300
H437        H  0.92233282  0.21841796  0.67992489     0.02800
H438        H  0.87952500  0.26622448  0.65410443     0.06300
H439        H  0.08307411  0.16220849  0.70041939     0.05300
H440        H  0.09158472  0.23081109  0.69813330    -0.00500
H441        H  0.03816351  0.20099022  0.66488856     0.01000
H442        H  0.93267278  0.25170665  0.90079753     0.04700
H443        H  0.91776572  0.18386347  0.89665688     0.06600
H444        H  0.88546882  0.22789471  0.85576081     0.07500
C445        C  0.95920600  0.74482256  0.79633245    -0.22100
C446        C  0.98859811  0.75068370  0.75169184     0.09800
C447        C  0.01807363  0.79558523  0.74444514     0.10200
C448        C  0.01869115  0.83326011  0.78301641    -0.17100
C449        C  0.99069295  0.82698373  0.82873212    -0.27500
C450        C  0.95964713  0.78248907  0.83504871     0.18600
C451        C  0.98798227  0.70921718  0.71289112     0.12500
C452        C  0.04868751  0.80374444  0.69595605    -0.11800
H453        H  0.04167071  0.86753781  0.77767445     0.12800
C454        C  0.92567717  0.77495946  0.88143530    -0.19900
H455        H  0.93606317  0.71041659  0.80091064     0.08400
C456        C  0.02496594  0.66960828  0.71351556     0.04800
C457        C  0.02423474  0.63230529  0.67454765    -0.19900
C458        C  0.98645651  0.63299001  0.63595925    -0.12200
C459        C  0.94796492  0.67149962  0.63686787     0.13500
C460        C  0.94975301  0.70964740  0.67498605    -0.22600
C461        C  0.06483642  0.66660142  0.75547648    -0.05700
H462        H  0.05323388  0.60236620  0.67406632     0.15000
C463        C  0.90433626  0.67324748  0.59875463    -0.15900
H464        H  0.92096922  0.73981628  0.67535832     0.09300
H465        H  0.94951321  0.76987423  0.91642540     0.07200
H466        H  0.90117730  0.74013289  0.87765139     0.08400
H467        H  0.89992470  0.80870886  0.88619459     0.07500
H468        H  0.02256456  0.80356005  0.66216125     0.02300
H469        H  0.07743181  0.77253721  0.69149317     0.02800
H470        H  0.06947744  0.84109727  0.69649100     0.06300
H471        H  0.09070845  0.63301253  0.75025054     0.05300
H472        H  0.04560940  0.66269590  0.79339874    -0.00500
H473        H  0.08868388  0.70201181  0.75556395     0.01000
H474        H  0.86723901  0.67224488  0.61974800     0.04700
H475        H  0.90450780  0.64039702  0.57154922     0.06600
H476        H  0.90649940  0.70950480  0.57621353     0.07500
C477        C  0.01486610  0.73832104  0.20280069    -0.22100
C478        C  0.00495707  0.75283948  0.25356985     0.09800
C479        C  0.99472433  0.80481286  0.26510059     0.10200
C480        C  0.99297096  0.84108709  0.22499186    -0.17100
C481        C  0.00203959  0.82689571  0.17332093    -0.27500
C482        C  0.01386014  0.77436105  0.16253820     0.18600
C483        C  0.00481549  0.71248212  0.29383538     0.12500
C484        C  0.98638156  0.82199344  0.31986487    -0.11800
H485        H  0.98449643  0.88084021  0.23436127     0.12800
C486        C  0.02686978  0.75537407  0.10934667    -0.22700
H487        H  0.02327970  0.69823400  0.19469360     0.08400
C488        C  0.95896951  0.68747076  0.30833716     0.04800
C489        C  0.96058233  0.64914514  0.34631319    -0.19900
C490        C  0.00718967  0.63417414  0.36892710    -0.12200
C491        C  0.05329881  0.65870858  0.35374526     0.13500
C492        C  0.05143727  0.69780952  0.31649417    -0.22600
C493        C  0.90855436  0.70060207  0.28306945    -0.05700
H494        H  0.92541232  0.63020304  0.35809614     0.15000
C495        C  0.10486806  0.64473083  0.37610657    -0.15900
H496        H  0.08661707  0.71681329  0.30480302     0.09300
H497        H  0.03829704  0.71416318  0.10920792     0.07200
H498        H  0.05960108  0.77787448  0.09423785     0.08400
H499        H  0.99317171  0.75923655  0.08351881     0.07500
H500        H  0.02102114  0.81308637  0.34316914     0.02300
H501        H  0.95287767  0.80169581  0.33665753     0.02800
H502        H  0.97911808  0.86406019  0.32236464     0.06300
H503        H  0.87655490  0.67703638  0.29865181     0.05300
H504        H  0.91112823  0.69329994  0.24104311    -0.00500
H505        H  0.89917385  0.74175512  0.28954310     0.01000
H506        H  0.13104148  0.63245080  0.34472434     0.04700
H507        H  0.10276804  0.61293093  0.40446004     0.06600
H508        H  0.12160357  0.67889102  0.39564026     0.07500
C509        C  0.02519506  0.20359882  0.25719211    -0.22100
C510        C  0.99851694  0.24955490  0.24852173     0.09800
C511        C  0.97340215  0.25746138  0.20106434     0.10200
C512        C  0.97464210  0.21848604  0.16355836    -0.17100
C513        C  0.00041203  0.17169045  0.17244248    -0.27500
C514        C  0.02670653  0.16454312  0.21983088     0.18600
C515        C  0.99874972  0.28931281  0.28945203     0.12500
C516        C  0.94558030  0.30709384  0.18999542    -0.11800
H517        H  0.95484433  0.22439300  0.12731120     0.12800
C518        C  0.05803761  0.11690510  0.23089641    -0.22700
H519        H  0.04505421  0.19840242  0.29351785     0.08400
C520        C  0.96031302  0.29102191  0.32762457     0.04800
C521        C  0.96255045  0.32927104  0.36580770    -0.19900
C522        C  0.00336847  0.36466130  0.36775306    -0.12200
C523        C  0.04308073  0.36125579  0.33066664     0.13500
C524        C  0.03966878  0.32425878  0.29143913    -0.22600
C525        C  0.91747120  0.25204944  0.32841191    -0.05700
H526        H  0.93249737  0.33147955  0.39455278     0.15000
C527        C  0.09006741  0.39513113  0.33187782    -0.15900
H528        H  0.06974026  0.32194405  0.26269738     0.09300
H529        H  0.07914605  0.12007211  0.26793897     0.07200
H530        H  0.08680723  0.11095841  0.19993548     0.08400
H531        H  0.03266798  0.08271521  0.23377546     0.07500
H532        H  0.97283929  0.33987622  0.19254231     0.02300
H533        H  0.91430785  0.31282278  0.21839143     0.02800
H534        H  0.92830840  0.30715466  0.15088844     0.06300
H535        H  0.89092661  0.25854768  0.36120644     0.05300
H536        H  0.93374939  0.21270779  0.33216726    -0.00500
H537        H  0.89493997  0.25441526  0.29222543     0.01000
H538        H  0.12499359  0.37066591  0.33350786     0.04700
H539        H  0.09120781  0.42115241  0.36564508     0.06600
H540        H  0.09141541  0.41892855  0.29641058     0.07500
loop_ 
_geom_bond_atom_site_label_1 
_geom_bond_atom_site_label_2 
_geom_bond_distance 
_geom_bond_site_symmetry_2 
_ccdc_geom_bond_type 
N1            C6   1.352       .  A
N1            C5   1.351       .  A
N1           H33   1.037   1_655  S
N2            C9   1.352   1_655  A
N2           C10   1.352   1_655  A
N3            C8   1.354   1_455  A
N3            C7   1.355   1_455  A
N3           H34   1.037       .  S
N4           C11   1.352   1_655  A
N4           C12   1.351   1_655  A
C5           C13   1.387       .  A
C5           C21   1.412       .  A
C6           C22   1.414       .  A
C6           C14   1.388       .  A
C7           C15   1.387       .  A
C7           C24   1.419   1_655  A
C8           C23   1.419   1_655  A
C8           C16   1.388       .  A
C9           C21   1.413   1_455  A
C9           C17   1.386       .  A
C10          C24   1.415       .  A
C10          C18   1.386       .  A
C11          C19   1.386       .  A
C11          C22   1.414   1_455  A
C12          C20   1.387       .  A
C12          C23   1.414       .  A
C13          C14   1.375       .  A
C13          H25   1.082       .  S
C14          H26   1.082       .  S
C15          C16   1.375       .  A
C15          H27   1.082       .  S
C16          H28   1.082       .  S
C17          C18   1.372       .  A
C17          H29   1.082       .  S
C18          H30   1.082       .  S
C19          C20   1.371       .  A
C19          H31   1.082       .  S
C20          H32   1.082       .  S
C21         C417   1.483       .  S
C22         C458   1.488       .  S
C23         C490   1.489       .  S
C24         C522   1.495       .  S
O35          C46   1.292   1_455  A
O35         Eu71   2.461   1_554  S
O36          C47   1.290   1_655  A
O36         Eu70   2.462   1_554  S
O37          C48   1.292       .  A
O37         Eu43   2.462   1_545  S
O38          C49   1.289       .  A
O38         Eu43   2.449   1_455  S
O39          C49   1.293       .  A
O39         Eu73   2.465       .  S
O40          C48   1.290       .  A
O40         Eu72   2.452   1_554  S
O41          C47   1.292   1_655  A
O41         Eu43   2.461       .  S
O42          C46   1.290       .  A
O42         Eu43   2.456   1_545  S
Eu43         O53   2.353   1_665  S
Eu43         O45   2.350   1_565  S
Eu43         O44   2.356   1_655  S
Eu43         O51   2.351       .  S
O44         Eu73   2.358       .  S
O44         Eu70   2.348   1_454  S
O45         Eu71   2.351   1_654  S
O45         Eu72   2.355   1_554  S
C46         C513   1.487   1_655  S
C47         C481   1.501       .  S
C48         C394   1.483       .  S
C49         C362   1.488   1_565  S
H50          O51   0.966       .  S
O51         Eu72   2.358   1_564  S
O51         Eu70   2.348   1_554  S
H52          O53   0.965       .  S
O53         Eu71   2.348   1_554  S
O53         Eu73   2.357   1_545  S
O54          C77   1.288       .  A
O54         Eu70   2.442       .  S
O55          C78   1.290   1_455  A
O55         Eu71   2.452       .  S
O56          C79   1.293       .  A
O56         Eu72   2.467   1_565  S
O57          C80   1.291       .  A
O57         Eu73   2.460   1_556  S
O58          C81   1.291       .  A
O58         Eu73   2.452   1_545  S
O59          C82   1.292       .  A
O59         Eu72   2.464       .  S
O60          C83   1.287   1_545  A
O60         Eu74   2.445   1_645  S
O61          C84   1.292   1_565  A
O61         Eu74   2.465       .  S
O62          C83   1.294       .  A
O62         Eu72   2.469   1_565  S
O63          C84   1.293       .  A
O63         Eu73   2.472   1_546  S
O64          C79   1.289       .  A
O64         Eu70   2.455       .  S
O65          C82   1.292   1_554  A
O65         Eu71   2.462   1_654  S
O66          C81   1.291       .  A
O66         Eu71   2.463   1_554  S
O67          C80   1.292       .  A
O67         Eu70   2.456   1_455  S
O68          C77   1.292       .  A
O68         Eu74   2.461   1_655  S
O69          C78   1.291   1_455  A
O69         Eu74   2.454   1_545  S
Eu70         O88   2.357   1_655  S
Eu70         O76   2.348       .  S
Eu71         O75   2.356       .  S
Eu71         O86   2.353   1_455  S
Eu72         O86   2.350       .  S
Eu72         O76   2.345   1_545  S
Eu73         O75   2.354   1_564  S
Eu73         O88   2.351   1_554  S
Eu74         O75   2.351   1_565  S
Eu74         O86   2.354   1_465  S
Eu74         O88   2.345       .  S
Eu74         O76   2.351   1_455  S
C77         C449   1.480       .  S
C78         C426   1.475       .  S
C79         C161   1.497       .  S
C80         C225   1.482       .  S
C81         C257   1.488       .  S
C82         C202   1.485       .  S
C83         C298   1.495   1_565  S
C84         C330   1.489       .  S
H85          O86   0.964       .  S
H87          O88   0.964       .  S
N89          C94   1.352       .  A
N89          C93   1.352       .  A
N89         H121   1.039   1_545  S
N90          C97   1.352   1_545  A
N90          C98   1.352   1_545  A
N91          C96   1.353       .  A
N91          C95   1.354       .  A
N91         H122   1.039   1_545  S
N92          C99   1.351   1_545  A
N92         C100   1.351   1_545  A
C93         C101   1.387       .  A
C93         C109   1.415       .  A
C94         C110   1.414       .  A
C94         C102   1.387       .  A
C95         C103   1.386       .  A
C95         C112   1.416       .  A
C96         C111   1.417       .  A
C96         C104   1.387       .  A
C97         C109   1.415   1_565  A
C97         C105   1.386       .  A
C98         C112   1.414   1_565  A
C98         C106   1.386       .  A
C99         C107   1.386       .  A
C99         C110   1.413   1_565  A
C100        C108   1.387       .  A
C100        C111   1.414   1_565  A
C101        C102   1.375       .  A
C101        H113   1.082       .  S
C102        H114   1.082       .  S
C103        C104   1.376       .  A
C103        H115   1.082       .  S
C104        H116   1.082       .  S
C105        C106   1.374       .  A
C105        H117   1.082       .  S
C106        H118   1.082       .  S
C107        C108   1.373       .  A
C107        H119   1.082       .  S
C108        H120   1.082       .  S
C109        C353   1.491       .  S
C110        C385   1.488       .  S
C111        C289   1.490   1_545  S
C112        C321   1.493       .  S
N123        C128   1.354   1_554  A
N123        C127   1.353   1_554  A
N123        H155   1.038       .  S
N124        C131   1.352       .  A
N124        C132   1.353       .  A
N125        C130   1.353   1_554  A
N125        C129   1.353   1_554  A
N125        H156   1.037       .  S
N126        C133   1.352       .  A
N126        C134   1.352       .  A
C127        C135   1.387       .  A
C127        C143   1.417   1_556  A
C128        C144   1.418   1_556  A
C128        C136   1.387       .  A
C129        C137   1.388       .  A
C129        C146   1.417   1_556  A
C130        C145   1.415   1_556  A
C130        C138   1.387       .  A
C131        C143   1.416       .  A
C131        C139   1.387       .  A
C132        C146   1.415       .  A
C132        C140   1.386       .  A
C133        C141   1.386       .  A
C133        C144   1.415       .  A
C134        C142   1.386       .  A
C134        C145   1.413       .  A
C135        C136   1.376       .  A
C135        H147   1.082       .  S
C136        H148   1.082       .  S
C137        C138   1.375       .  A
C137        H149   1.082       .  S
C138        H150   1.082       .  S
C139        C140   1.373       .  A
C139        H151   1.082       .  S
C140        H152   1.082       .  S
C141        C142   1.373       .  A
C141        H153   1.082       .  S
C142        H154   1.082       .  S
C143        C266   1.490       .  S
C144        C193   1.495       .  S
C145        C170   1.487       .  S
C146        C234   1.492       .  S
C157        C158   1.398   1_554  A
C157        C162   1.405       .  A
C157        H167   1.084       .  S
C158        C159   1.407       .  A
C158        C163   1.481       .  S
C159        C160   1.404       .  A
C159        C164   1.506       .  S
C160        C161   1.411       .  A
C160        H165   1.083       .  S
C161        C162   1.425   1_556  A
C162        C166   1.509       .  S
C163        C168   1.411       .  A
C163        C172   1.402   1_556  A
C164        H180   1.110       .  S
C164        H181   1.110       .  S
C164        H182   1.111       .  S
C166        H177   1.108       .  S
C166        H178   1.111       .  S
C166        H179   1.110       .  S
C168        C169   1.403       .  A
C168        C173   1.506       .  S
C169        C170   1.403   1_556  A
C169        H174   1.084       .  S
C170        C171   1.415       .  A
C171        C172   1.403       .  A
C171        C175   1.507       .  S
C172        H176   1.084       .  S
C173        H183   1.111       .  S
C173        H184   1.110       .  S
C173        H185   1.110       .  S
C175        H186   1.110       .  S
C175        H187   1.108       .  S
C175        H188   1.110       .  S
C189        C190   1.402       .  A
C189        C194   1.404       .  A
C189        H199   1.084       .  S
C190        C191   1.411   1_554  A
C190        C195   1.486       .  S
C191        C192   1.405       .  A
C191        C196   1.506       .  S
C192        C193   1.405   1_556  A
C192        H197   1.084       .  S
C193        C194   1.417       .  A
C194        C198   1.507       .  S
C195        C200   1.411       .  A
C195        C204   1.402   1_554  A
C196        H212   1.110       .  S
C196        H213   1.111       .  S
C196        H214   1.111       .  S
C198        H209   1.110       .  S
C198        H210   1.110       .  S
C198        H211   1.107       .  S
C200        C201   1.405       .  A
C200        C205   1.506       .  S
C201        C202   1.406   1_554  A
C201        H206   1.084       .  S
C202        C203   1.417       .  A
C203        C204   1.405       .  A
C203        C207   1.508       .  S
C204        H208   1.084       .  S
C205        H215   1.111       .  S
C205        H216   1.110       .  S
C205        H217   1.110       .  S
C207        H218   1.111       .  S
C207        H219   1.109       .  S
C207        H220   1.111       .  S
C221        C222   1.402       .  A
C221        C226   1.406       .  A
C221        H231   1.084       .  S
C222        C223   1.408   1_556  A
C222        C227   1.479       .  S
C223        C224   1.400       .  A
C223        C228   1.507       .  S
C224        C225   1.403   1_554  A
C224        H229   1.079       .  S
C225        C226   1.418       .  A
C226        C230   1.509       .  S
C227        C232   1.409       .  A
C227        C236   1.401   1_556  A
C228        H244   1.110       .  S
C228        H245   1.110       .  S
C228        H246   1.111       .  S
C230        H241   1.111       .  S
C230        H242   1.111       .  S
C230        H243   1.109       .  S
C232        C233   1.404       .  A
C232        C237   1.506       .  S
C233        C234   1.405   1_556  A
C233        H238   1.084       .  S
C234        C235   1.417       .  A
C235        C236   1.402       .  A
C235        C239   1.507       .  S
C236        H240   1.085       .  S
C237        H247   1.111       .  S
C237        H248   1.110       .  S
C237        H249   1.110       .  S
C239        H250   1.110       .  S
C239        H251   1.108       .  S
C239        H252   1.111       .  S
C253        C254   1.400       .  A
C253        C258   1.405       .  A
C253        H263   1.084       .  S
C254        C255   1.408   1_554  A
C254        C259   1.480   1_554  S
C255        C256   1.403       .  A
C255        C260   1.507       .  S
C256        C257   1.409   1_556  A
C256        H261   1.084       .  S
C257        C258   1.420       .  A
C258        C262   1.509       .  S
C259        C264   1.411       .  A
C259        C268   1.400   1_556  A
C260        H276   1.110       .  S
C260        H277   1.109       .  S
C260        H278   1.111       .  S
C262        H273   1.109       .  S
C262        H274   1.111       .  S
C262        H275   1.111       .  S
C264        C265   1.404       .  A
C264        C269   1.507       .  S
C265        C266   1.404   1_556  A
C265        H270   1.084       .  S
C266        C267   1.416       .  A
C267        C268   1.403       .  A
C267        C271   1.508       .  S
C268        H272   1.084       .  S
C269        H279   1.111       .  S
C269        H280   1.110       .  S
C269        H281   1.110       .  S
C271        H282   1.110       .  S
C271        H283   1.107       .  S
C271        H284   1.110       .  S
C285        C286   1.401   1_565  A
C285        C290   1.402       .  A
C285        H295   1.085       .  S
C286        C287   1.412       .  A
C286        C291   1.482       .  S
C287        C288   1.404       .  A
C287        C292   1.507       .  S
C288        C289   1.404   1_545  A
C288        H293   1.084       .  S
C289        C290   1.416       .  A
C290        C294   1.507       .  S
C291        C296   1.409       .  A
C291        C300   1.398   1_545  A
C292        H308   1.110       .  S
C292        H309   1.110       .  S
C292        H310   1.111       .  S
C294        H305   1.110       .  S
C294        H306   1.111       .  S
C294        H307   1.108       .  S
C296        C297   1.403       .  A
C296        C301   1.507       .  S
C297        C298   1.409       .  A
C297        H302   1.083       .  S
C298        C299   1.426   1_545  A
C299        C300   1.404       .  A
C299        C303   1.510       .  S
C300        H304   1.084       .  S
C301        H311   1.111       .  S
C301        H312   1.110       .  S
C301        H313   1.110       .  S
C303        H314   1.111       .  S
C303        H315   1.111       .  S
C303        H316   1.110       .  S
C317        C318   1.404       .  A
C317        C322   1.405       .  A
C317        H327   1.084       .  S
C318        C319   1.414   1_545  A
C318        C323   1.491       .  S
C319        C320   1.406       .  A
C319        C324   1.507       .  S
C320        C321   1.403   1_565  A
C320        H325   1.084       .  S
C321        C322   1.415       .  A
C322        C326   1.507       .  S
C323        C328   1.414       .  A
C323        C332   1.402   1_545  A
C324        H340   1.109       .  S
C324        H341   1.110       .  S
C324        H342   1.111       .  S
C326        H337   1.111       .  S
C326        H338   1.110       .  S
C326        H339   1.108       .  S
C328        C329   1.408       .  A
C328        C333   1.507       .  S
C329        C330   1.406       .  A
C329        H334   1.084       .  S
C330        C331   1.417   1_545  A
C331        C332   1.406       .  A
C331        C335   1.506       .  S
C332        H336   1.084       .  S
C333        H343   1.111       .  S
C333        H344   1.109       .  S
C333        H345   1.110       .  S
C335        H346   1.111       .  S
C335        H347   1.109       .  S
C335        H348   1.111       .  S
C349        C350   1.399   1_565  A
C349        C354   1.401       .  A
C349        H359   1.085       .  S
C350        C351   1.410       .  A
C350        C355   1.479       .  S
C351        C352   1.404       .  A
C351        C356   1.506       .  S
C352        C353   1.405       .  A
C352        H357   1.084       .  S
C353        C354   1.417   1_545  A
C354        C358   1.508       .  S
C355        C360   1.408       .  A
C355        C364   1.400   1_545  A
C356        H372   1.110       .  S
C356        H373   1.110       .  S
C356        H374   1.111       .  S
C358        H369   1.111       .  S
C358        H370   1.110       .  S
C358        H371   1.107       .  S
C360        C361   1.402       .  A
C360        C365   1.506       .  S
C361        C362   1.408       .  A
C361        H366   1.084       .  S
C362        C363   1.422   1_545  A
C363        C364   1.405       .  A
C363        C367   1.510       .  S
C364        H368   1.084       .  S
C365        H375   1.111       .  S
C365        H376   1.110       .  S
C365        H377   1.110       .  S
C367        H378   1.111       .  S
C367        H379   1.111       .  S
C367        H380   1.109       .  S
C381        C382   1.401   1_565  A
C381        C386   1.402       .  A
C381        H391   1.085       .  S
C382        C383   1.410       .  A
C382        C387   1.480       .  S
C383        C384   1.402       .  A
C383        C388   1.506       .  S
C384        C385   1.403       .  A
C384        H389   1.084       .  S
C385        C386   1.416   1_545  A
C386        C390   1.508       .  S
C387        C392   1.410   1_545  A
C387        C396   1.400       .  A
C388        H404   1.110       .  S
C388        H405   1.110       .  S
C388        H406   1.111       .  S
C390        H401   1.110       .  S
C390        H402   1.111       .  S
C390        H403   1.108       .  S
C392        C393   1.403       .  A
C392        C397   1.507       .  S
C393        C394   1.406   1_565  A
C393        H398   1.084       .  S
C394        C395   1.419       .  A
C395        C396   1.404       .  A
C395        C399   1.509       .  S
C396        H400   1.084       .  S
C397        H407   1.111       .  S
C397        H408   1.110       .  S
C397        H409   1.110       .  S
C399        H410   1.111       .  S
C399        H411   1.109       .  S
C399        H412   1.111       .  S
C413        C414   1.401   1_455  A
C413        C418   1.401       .  A
C413        H423   1.085       .  S
C414        C415   1.412       .  A
C414        C419   1.478       .  S
C415        C416   1.401       .  A
C415        C420   1.507       .  S
C416        C417   1.401       .  A
C416        H421   1.084       .  S
C417        C418   1.415   1_655  A
C418        C422   1.508       .  S
C419        C424   1.411   1_655  A
C419        C428   1.400       .  A
C420        H436   1.109       .  S
C420        H437   1.110       .  S
C420        H438   1.110       .  S
C422        H433   1.110       .  S
C422        H434   1.110       .  S
C422        H435   1.108       .  S
C424        C425   1.402       .  A
C424        C429   1.507       .  S
C425        C426   1.404   1_455  A
C425        H430   1.084       .  S
C426        C427   1.418       .  A
C427        C428   1.400       .  A
C427        C431   1.510       .  S
C428        H432   1.085       .  S
C429        H439   1.111       .  S
C429        H440   1.110       .  S
C429        H441   1.111       .  S
C431        H442   1.110       .  S
C431        H443   1.107       .  S
C431        H444   1.111       .  S
C445        C446   1.399       .  A
C445        C450   1.403       .  A
C445        H455   1.084       .  S
C446        C447   1.409   1_655  A
C446        C451   1.475       .  S
C447        C448   1.400       .  A
C447        C452   1.507       .  S
C448        C449   1.404   1_455  A
C448        H453   1.082       .  S
C449        C450   1.420       .  A
C450        C454   1.509       .  S
C451        C456   1.409   1_655  A
C451        C460   1.400       .  A
C452        H468   1.110       .  S
C452        H469   1.110       .  S
C452        H470   1.111       .  S
C454        H465   1.108       .  S
C454        H466   1.111       .  S
C454        H467   1.111       .  S
C456        C457   1.401       .  A
C456        C461   1.507       .  S
C457        C458   1.404   1_455  A
C457        H462   1.084       .  S
C458        C459   1.416       .  A
C459        C460   1.401       .  A
C459        C463   1.507       .  S
C460        H464   1.085       .  S
C461        H471   1.111       .  S
C461        H472   1.110       .  S
C461        H473   1.109       .  S
C463        H474   1.110       .  S
C463        H475   1.108       .  S
C463        H476   1.110       .  S
C477        C478   1.396       .  A
C477        C482   1.404       .  A
C477        H487   1.084       .  S
C478        C479   1.408   1_455  A
C478        C483   1.481       .  S
C479        C480   1.406       .  A
C479        C484   1.507       .  S
C480        C481   1.412   1_655  A
C480        H485   1.083       .  S
C481        C482   1.426       .  A
C482        C486   1.506       .  S
C483        C488   1.411   1_455  A
C483        C492   1.402       .  A
C484        H500   1.110   1_655  S
C484        H501   1.109       .  S
C484        H502   1.111       .  S
C486        H497   1.111       .  S
C486        H498   1.106       .  S
C486        H499   1.109   1_455  S
C488        C489   1.402       .  A
C488        C493   1.507       .  S
C489        C490   1.403   1_655  A
C489        H494   1.084       .  S
C490        C491   1.416       .  A
C491        C492   1.404       .  A
C491        C495   1.507       .  S
C492        H496   1.084       .  S
C493        H503   1.111       .  S
C493        H504   1.110       .  S
C493        H505   1.109       .  S
C495        H506   1.110       .  S
C495        H507   1.108       .  S
C495        H508   1.111       .  S
C509        C510   1.399   1_455  A
C509        C514   1.404       .  A
C509        H519   1.084       .  S
C510        C511   1.410       .  A
C510        C515   1.482       .  S
C511        C512   1.405       .  A
C511        C516   1.506       .  S
C512        C513   1.407   1_655  A
C512        H517   1.084       .  S
C513        C514   1.420       .  A
C514        C518   1.510       .  S
C515        C520   1.411       .  A
C515        C524   1.400   1_655  A
C516        H532   1.110       .  S
C516        H533   1.110       .  S
C516        H534   1.111       .  S
C518        H529   1.111       .  S
C518        H530   1.111       .  S
C518        H531   1.109       .  S
C520        C521   1.405       .  A
C520        C525   1.506       .  S
C521        C522   1.406   1_655  A
C521        H526   1.084       .  S
C522        C523   1.417       .  A
C523        C524   1.403       .  A
C523        C527   1.507       .  S
C524        H528   1.084       .  S
C525        H535   1.111       .  S
C525        H536   1.110       .  S
C525        H537   1.109       .  S
C527        H538   1.110       .  S
C527        H539   1.108       .  S
C527        H540   1.110       .  S
