geometry optimzed in LAMMPS
_audit_creation_date              2020-11-30 
_audit_creation_method            'lammps2cif' 
_symmetry_space_group_name_H-M    'P1' 
_symmetry_Int_Tables_number       1 
_symmetry_cell_setting            triclinic 
loop_ 
_symmetry_equiv_pos_as_xyz 
  x,y,z 
_cell_length_a                    49.28602263 
_cell_length_b                    49.981049704531586 
_cell_length_c                    49.69057625359162 
_cell_angle_alpha                 89.76111034736537 
_cell_angle_beta                  90.35719913261369 
_cell_angle_gamma                 91.21680381936771 
loop_ 
_atom_site_label 
_atom_site_type_symbol 
_atom_site_fract_x 
_atom_site_fract_y 
_atom_site_fract_z 
_atom_site_charge 
C1          C  0.94091029  0.58402878  0.81215813     0.88100
C2          C  0.92205081  0.59100288  0.78827472    -0.52100
C3          C  0.89710337  0.57839301  0.78980442     0.11000
C4          C  0.89345566  0.56049878  0.81459542     0.22000
C5          C  0.92463374  0.59133231  0.83753707    -0.52900
C6          C  0.89958048  0.57895391  0.83829245     0.11100
C7          C  0.94140304  0.55334037  0.81178135    -0.52400
C8          C  0.91670682  0.54105173  0.81410829     0.11700
H9          H  0.92796336  0.60434783  0.77196219     0.16200
H10         H  0.87330368  0.55012389  0.81574440     0.02000
H11         H  0.93188893  0.60524490  0.85280181     0.16500
H12         H  0.95943919  0.54214219  0.80812946     0.16300
C13         C  0.01508236  0.58061921  0.82704477     0.88100
C14         C  0.01175900  0.55017630  0.82792104    -0.52100
C15         C  0.03479373  0.53643283  0.82410361     0.11000
C16         C  0.06000243  0.55467197  0.82054304     0.22000
C17         C  0.03643371  0.58638451  0.84913053    -0.52900
C18         C  0.05998553  0.57255710  0.84569337     0.11100
C19         C  0.02980541  0.58723370  0.80047803    -0.52400
C20         C  0.05329467  0.57369797  0.79691155     0.11700
H21         H  0.99317195  0.54008966  0.83402763     0.16200
H22         H  0.07904871  0.54354453  0.81872759     0.02000
H23         H  0.03294895  0.59947820  0.86607532     0.16500
H24         H  0.02281214  0.60192798  0.78602005     0.16300
C25         C  0.02352876  0.41816174  0.82427487     0.88100
C26         C  0.04137971  0.40873849  0.80083714    -0.52100
C27         C  0.06658280  0.42093875  0.80016150     0.11000
C28         C  0.07168824  0.44079958  0.82319305     0.22000
C29         C  0.04065946  0.41299958  0.85001118    -0.52900
C30         C  0.06612261  0.42484052  0.84908916     0.11100
C31         C  0.02367100  0.44863172  0.82079425    -0.52400
C32         C  0.04871698  0.46070717  0.82111959     0.11700
H33         H  0.03419048  0.39453556  0.78582770     0.16200
H34         H  0.09209527  0.45070050  0.82268211     0.02000
H35         H  0.03356323  0.40085910  0.86679870     0.16500
H36         H  0.00552485  0.45949115  0.81625237     0.16300
C37         C  0.94838473  0.42305840  0.83777025     0.88100
C38         C  0.92619849  0.41853421  0.85944145    -0.52100
C39         C  0.90292800  0.43262140  0.85439734     0.11000
C40         C  0.90427596  0.44964907  0.82853516     0.22000
C41         C  0.93393146  0.41579247  0.81079332    -0.52900
C42         C  0.91084075  0.42997137  0.80612079     0.11100
C43         C  0.95234345  0.45351235  0.83721570    -0.52400
C44         C  0.92974607  0.46743415  0.83168306     0.11700
H45         H  0.92878503  0.40567150  0.87686660     0.16200
H46         H  0.88550298  0.46096322  0.82473025     0.02000
H47         H  0.94119747  0.40102181  0.79681274     0.16500
H48         H  0.97139905  0.46358000  0.84200926     0.16300
C49         C  0.83036888  0.42169310  0.02997975     0.88100
C50         C  0.85143803  0.41121777  0.05006920    -0.52100
C51         C  0.84758083  0.42019388  0.07585713     0.11000
C52         C  0.82309236  0.43865613  0.07886254     0.22000
C53         C  0.80269333  0.41320870  0.04194032    -0.52900
C54         C  0.79869518  0.42221834  0.06754439     0.11100
C55         C  0.83230976  0.45206002  0.03309391    -0.52400
C56         C  0.82790784  0.46124576  0.05835100     0.11700
H57         H  0.86782405  0.39837700  0.04421004     0.16200
H58         H  0.82068446  0.44611044  0.09966431     0.02000
H59         H  0.78753666  0.40143989  0.03097927     0.16500
H60         H  0.83744088  0.46518429  0.01631507     0.16300
C61         C  0.82225609  0.43246696  0.95348826     0.88100
C62         C  0.79936797  0.42148918  0.93572494    -0.52100
C63         C  0.80079208  0.42944485  0.90961253     0.11000
C64         C  0.82584448  0.44755470  0.90341448     0.22000
C65         C  0.84857738  0.42353058  0.93978679    -0.52900
C66         C  0.85068243  0.43141074  0.91333552     0.11100
C67         C  0.82204328  0.46305076  0.94935585    -0.52400
C68         C  0.82403117  0.47112606  0.92316743     0.11700
H69         H  0.78271650  0.40914697  0.94346139     0.16200
H70         H  0.82670384  0.45449715  0.88234199     0.02000
H71         H  0.86435289  0.41247720  0.94994890     0.16500
H72         H  0.82137759  0.47696347  0.96604622     0.16300
C73         C  0.85900144  0.58490810  0.90334236     0.88100
C74         C  0.86434695  0.59341478  0.93234046    -0.52100
C75         C  0.84303977  0.58811765  0.94909479     0.11000
C76         C  0.81814930  0.57443180  0.93498459     0.22000
C77         C  0.85125325  0.55496510  0.90534179    -0.52900
C78         C  0.82993699  0.54918181  0.92193114     0.11100
C79         C  0.83295121  0.59896010  0.89506961    -0.52400
C80         C  0.81125270  0.59310350  0.91100106     0.11700
H81         H  0.88383761  0.60125015  0.93940381     0.16200
H82         H  0.80084091  0.56991687  0.94858295     0.02000
H83         H  0.86287817  0.53971358  0.89540958     0.16500
H84         H  0.83141637  0.61122627  0.87703063     0.16300
C85         C  0.82808345  0.58061813  0.02366058     0.88100
C86         C  0.80457125  0.58818938  0.04197818    -0.52100
C87         C  0.80449875  0.57482647  0.06611133     0.11000
C88         C  0.82802346  0.55530467  0.06956625     0.22000
C89         C  0.85391798  0.58597654  0.04063773    -0.52900
C90         C  0.85419794  0.57248166  0.06468183     0.11100
C91         C  0.82560385  0.55021949  0.02122731    -0.52400
C92         C  0.82538476  0.53685174  0.04503632     0.11700
H93         H  0.78947867  0.60263881  0.03617043     0.16200
H94         H  0.82689094  0.54445638  0.08899827     0.02000
H95         H  0.87058007  0.59892961  0.03406710     0.16500
H96         H  0.82345745  0.54005957  0.00198073     0.16300
C97         C  0.12774348  0.57056600  0.95315094     0.88100
C98         C  0.15195509  0.58165676  0.93665115    -0.52100
C99         C  0.15249696  0.57216063  0.91071645     0.11000
C100        C  0.12864177  0.55295376  0.90383700     0.22000
C101        C  0.10250183  0.57765877  0.93652774    -0.52900
C102        C  0.10296936  0.56880939  0.91058084     0.11100
C103        C  0.12935716  0.54009674  0.95086183    -0.52400
C104        C  0.13010277  0.53065275  0.92513709     0.11700
H105        H  0.16718058  0.59529447  0.94497049     0.16200
H106        H  0.12932381  0.54486993  0.88312033     0.02000
H107        H  0.08573542  0.58883608  0.94456726     0.16500
H108        H  0.12885413  0.52712130  0.96835715     0.16300
C109        C  0.14347942  0.56779590  0.02899561     0.88100
C110        C  0.11875403  0.57818979  0.04458404    -0.52100
C111        C  0.11660992  0.56816249  0.07029609     0.11000
C112        C  0.13955109  0.54886401  0.07782234     0.22000
C113        C  0.16813802  0.57474254  0.04703049    -0.52900
C114        C  0.16604505  0.56479272  0.07270093     0.11100
C115        C  0.14057677  0.53726295  0.03066254    -0.52400
C116        C  0.13813238  0.52732974  0.05611301     0.11700
H117        H  0.10394070  0.59159054  0.03602395     0.16200
H118        H  0.13844634  0.53993242  0.09821737     0.02000
H119        H  0.18575240  0.58589639  0.03975954     0.16500
H120        H  0.14089832  0.52452028  0.01307663     0.16300
C121        C  0.12142012  0.40821640  0.02705057     0.88100
C122        C  0.14860326  0.40468904  0.04232755    -0.52100
C123        C  0.15044323  0.41903299  0.06575049     0.11000
C124        C  0.12524575  0.43545784  0.07166633     0.22000
C125        C  0.09958807  0.40040256  0.04772003    -0.52900
C126        C  0.10139985  0.41467499  0.07124394     0.11100
C127        C  0.11800748  0.43836695  0.02368070    -0.52400
C128        C  0.12095573  0.45277161  0.04650178     0.11700
H129        H  0.16481338  0.39219987  0.03531436     0.16200
H130        H  0.12727423  0.44750642  0.09019426     0.02000
H131        H  0.08378529  0.38540603  0.04387514     0.16500
H132        H  0.11259065  0.44771985  0.00476176     0.16300
C133        C  0.13655180  0.40968420  0.95439641     0.88100
C134        C  0.10974186  0.40564635  0.93854031    -0.52100
C135        C  0.10879028  0.41966684  0.91481956     0.11000
C136        C  0.13464800  0.43711061  0.90961592     0.22000
C137        C  0.15888238  0.40259723  0.93437965    -0.52900
C138        C  0.15823770  0.41726209  0.91092551     0.11100
C139        C  0.14026857  0.43993287  0.95783072    -0.52400
C140        C  0.13852476  0.45449144  0.93485288     0.11700
H141        H  0.09334497  0.39231002  0.94495733     0.16200
H142        H  0.13442052  0.44928528  0.89094680     0.02000
H143        H  0.17434129  0.38822281  0.93922649     0.16500
H144        H  0.14570103  0.44920302  0.97682304     0.16300
C145        C  0.94332003  0.56309541  0.15127710     0.88100
C146        C  0.92621306  0.57002409  0.12593040    -0.52100
C147        C  0.90135432  0.55681707  0.12537756     0.11000
C148        C  0.89605993  0.53878464  0.14989676     0.22000
C149        C  0.92498787  0.56969448  0.17515474    -0.52900
C150        C  0.90023131  0.55687779  0.17442818     0.11100
C151        C  0.94441037  0.53236920  0.15145005    -0.52400
C152        C  0.91967999  0.51967079  0.15033049     0.11700
H153        H  0.93347787  0.58294759  0.10980440     0.16200
H154        H  0.87597408  0.52822198  0.14947478     0.02000
H155        H  0.93142856  0.58306621  0.19119558     0.16500
H156        H  0.96313093  0.52162426  0.15305218     0.16300
C157        C  0.02091090  0.56547320  0.14594871     0.88100
C158        C  0.03189497  0.57859794  0.17219898    -0.52100
C159        C  0.05731393  0.57041488  0.17949227     0.11000
C160        C  0.06969472  0.55079286  0.15922734     0.22000
C161        C  0.04243347  0.57242641  0.12458749    -0.52900
C162        C  0.06807742  0.56468722  0.13152409     0.11100
C163        C  0.02380903  0.53528252  0.15056215    -0.52400
C164        C  0.04917038  0.52747603  0.15772049     0.11700
H165        H  0.02057580  0.59236291  0.18439078     0.16200
H166        H  0.09050824  0.54428525  0.16422792     0.02000
H167        H  0.03745358  0.58186528  0.10555060     0.16500
H168        H  0.00738397  0.52103900  0.14692496     0.16300
C169        C  0.95297266  0.40073813  0.14392648     0.88100
C170        C  0.93617542  0.39669142  0.16978047    -0.52100
C171        C  0.91250940  0.41052485  0.16985594     0.11000
C172        C  0.90782943  0.42694047  0.14411614     0.22000
C173        C  0.93353806  0.39270014  0.12092502    -0.52900
C174        C  0.90978954  0.40653080  0.12079321     0.11100
C175        C  0.95651110  0.43099842  0.14017952    -0.52400
C176        C  0.93330038  0.44486433  0.14117334     0.11700
H177        H  0.94246571  0.38405074  0.18633204     0.16200
H178        H  0.88897423  0.43852091  0.14448178     0.02000
H179        H  0.93869077  0.37851166  0.10537066     0.16500
H180        H  0.97580578  0.44074532  0.13566605     0.16300
C181        C  0.02378737  0.40532274  0.16491056     0.88100
C182        C  0.04079857  0.40364336  0.13904697    -0.52100
C183        C  0.06361815  0.41977196  0.13932090     0.11000
C184        C  0.06725471  0.43599175  0.16532512     0.22000
C185        C  0.04364213  0.39866542  0.18774528    -0.52900
C186        C  0.06640309  0.41493845  0.18804240     0.11100
C187        C  0.01841957  0.43510694  0.16905989    -0.52400
C188        C  0.04080243  0.45136536  0.16844000     0.11700
H189        H  0.03564553  0.39028887  0.12261272     0.16200
H190        H  0.08586366  0.44888728  0.16569718     0.02000
H191        H  0.03992038  0.38271605  0.20222994     0.16500
H192        H  0.99851617  0.44278544  0.17332265     0.16300
C193        C  0.39637968  0.96301536  0.83253425     0.88100
C194        C  0.38610094  0.94784965  0.80744923    -0.52100
C195        C  0.39943613  0.92455411  0.80276634     0.11000
C196        C  0.42184658  0.91876565  0.82396267     0.22000
C197        C  0.39382986  0.94282356  0.85570726    -0.52900
C198        C  0.40707197  0.91944472  0.85122978     0.11100
C199        C  0.42691565  0.96680961  0.82823054    -0.52400
C200        C  0.44025942  0.94394069  0.82359460     0.11700
H201        H  0.37014391  0.95514166  0.79434325     0.16200
H202        H  0.43338957  0.90031133  0.82073676     0.02000
H203        H  0.38289216  0.94711032  0.87399486     0.16500
H204        H  0.43722082  0.98627692  0.82852662     0.16300
C205        C  0.39611767  0.07863509  0.85302026     0.88100
C206        C  0.38449906  0.04994887  0.85037664    -0.52100
C207        C  0.39271290  0.03754428  0.82723540     0.11000
C208        C  0.41185058  0.05479455  0.80960462     0.22000
C209        C  0.42706762  0.07560267  0.85107773    -0.52900
C210        C  0.43535863  0.06320731  0.82829639     0.11100
C211        C  0.38764880  0.09267867  0.82678440    -0.52400
C212        C  0.39635115  0.08039960  0.80408320     0.11700
H213        H  0.37145943  0.04049228  0.86530558     0.16200
H214        H  0.41873541  0.04474266  0.79101266     0.02000
H215        H  0.44107628  0.08383766  0.86598207     0.16500
H216        H  0.37730200  0.11163223  0.82652648     0.16300
C217        C  0.55862662  0.96252060  0.82659811     0.88100
C218        C  0.56547594  0.94832506  0.85334793    -0.52100
C219        C  0.55482384  0.92278430  0.85520961     0.11000
C220        C  0.53906959  0.91378268  0.82969115     0.22000
C221        C  0.56909369  0.94397743  0.80459205    -0.52900
C222        C  0.55871402  0.91840030  0.80607235     0.11100
C223        C  0.52761130  0.96026871  0.82421489    -0.52400
C224        C  0.51721658  0.93476439  0.82588224     0.11700
H225        H  0.57682100  0.95789845  0.86958537     0.16200
H226        H  0.53065319  0.89305629  0.83018694     0.02000
H227        H  0.58292461  0.95087535  0.78903836     0.16500
H228        H  0.51516091  0.97783374  0.82251483     0.16300
C229        C  0.55243545  0.07848547  0.80153608     0.88100
C230        C  0.56339020  0.05023539  0.80652327    -0.52100
C231        C  0.55551244  0.03936672  0.83090888     0.11000
C232        C  0.53784640  0.05816204  0.84773615     0.22000
C233        C  0.52157423  0.07515252  0.80490376    -0.52900
C234        C  0.51382512  0.06466614  0.82911171     0.11100
C235        C  0.56217048  0.09483123  0.82591080    -0.52400
C236        C  0.55408510  0.08464255  0.85009092     0.11700
H237        H  0.57480632  0.03960146  0.79153672     0.16200
H238        H  0.53138593  0.04974788  0.86747526     0.02000
H239        H  0.50723456  0.08181924  0.78975438     0.16500
H240        H  0.57347397  0.11363432  0.82398927     0.16300
C241        C  0.55243671  0.84695622  0.95140446     0.88100
C242        C  0.56166918  0.82222647  0.93532425    -0.52100
C243        C  0.54739624  0.81841221  0.91165154     0.11000
C244        C  0.52567246  0.83951090  0.90651134     0.22000
C245        C  0.55524547  0.87057894  0.93147794    -0.52900
C246        C  0.54115124  0.86658593  0.90785522     0.11100
C247        C  0.52188813  0.84281570  0.95462216    -0.52400
C248        C  0.50797677  0.83839127  0.93162764     0.11700
H249        H  0.57740615  0.80900733  0.94233444     0.16200
H250        H  0.51395595  0.83635855  0.88756732     0.02000
H251        H  0.56672938  0.88878875  0.93597881     0.16500
H252        H  0.51163354  0.84391477  0.97366457     0.16300
C253        C  0.55458860  0.83579798  0.02720143     0.88100
C254        C  0.56257673  0.86207343  0.04211692    -0.52100
C255        C  0.55332154  0.86257991  0.06822368     0.11000
C256        C  0.53740450  0.83724898  0.07664653     0.22000
C257        C  0.56534082  0.81322276  0.04518093    -0.52900
C258        C  0.55602182  0.81379896  0.07098431     0.11100
C259        C  0.52347571  0.83342484  0.03013724    -0.52400
C260        C  0.51450375  0.83466433  0.05593097     0.11700
H261        H  0.57391001  0.87854595  0.03299570     0.16200
H262        H  0.52985515  0.83767696  0.09767993     0.02000
H263        H  0.57841723  0.79776268  0.03769351     0.16500
H264        H  0.50966814  0.82936162  0.01366293     0.16300
C265        C  0.39342330  0.84901985  0.95502117     0.88100
C266        C  0.38634321  0.87339511  0.93765471    -0.52100
C267        C  0.39433228  0.87130041  0.91139776     0.11000
C268        C  0.40812948  0.84463520  0.90497349     0.22000
C269        C  0.38004276  0.82500652  0.94047597    -0.52900
C270        C  0.38836575  0.82220998  0.91451025     0.11100
C271        C  0.42400132  0.84585673  0.95108238    -0.52400
C272        C  0.43174471  0.84351204  0.92485895     0.11700
H273        H  0.37697424  0.89114221  0.94562526     0.16200
H274        H  0.41439376  0.84247104  0.88375438     0.02000
H275        H  0.36691842  0.81036476  0.95043451     0.16500
H276        H  0.43828497  0.84665708  0.96781258     0.16300
C277        C  0.39696910  0.81046301  0.07450514     0.88100
C278        C  0.38521231  0.81019801  0.04597624    -0.52100
C279        C  0.39328689  0.83157899  0.03060103     0.11000
C280        C  0.41247011  0.85152414  0.04552861     0.22000
C281        C  0.42782165  0.81275715  0.07047880    -0.52900
C282        C  0.43608661  0.83429391  0.05546505     0.11100
C283        C  0.38892987  0.83741476  0.08638850    -0.52400
C284        C  0.39740596  0.85910618  0.07150310     0.11700
H285        H  0.37346365  0.79341017  0.03787873     0.16200
H286        H  0.41919749  0.86896415  0.03313891     0.02000
H287        H  0.44174042  0.79802621  0.07829679     0.16500
H288        H  0.37982337  0.83910700  0.10613669     0.16300
C289        C  0.39799014  0.16140065  0.02495880     0.88100
C290        C  0.39007758  0.13513581  0.03940644    -0.52100
C291        C  0.40133156  0.13262917  0.06456356     0.11000
C292        C  0.41922363  0.15720373  0.07290690     0.22000
C293        C  0.38973171  0.18364315  0.04423878    -0.52900
C294        C  0.40104422  0.18170323  0.06938205     0.11100
C295        C  0.42910306  0.16236588  0.02552585    -0.52400
C296        C  0.44037414  0.16032499  0.05061001     0.11700
H297        H  0.37729807  0.11963553  0.03033089     0.16200
H298        H  0.42890677  0.15621934  0.09302020     0.02000
H299        H  0.37706910  0.19997204  0.03781394     0.16500
H300        H  0.44106364  0.16435437  0.00745204     0.16300
C301        C  0.39616503  0.15388938  0.94853306     0.88100
C302        C  0.38416034  0.17970611  0.93651785    -0.52100
C303        C  0.39367980  0.18589170  0.91140579     0.11000
C304        C  0.41341988  0.16515894  0.90033395     0.22000
C305        C  0.38915373  0.13193962  0.92778765    -0.52900
C306        C  0.39833203  0.13800464  0.90248296     0.11100
C307        C  0.42706836  0.15778772  0.94636254    -0.52400
C308        C  0.43623466  0.16335085  0.92107955     0.11700
H309        H  0.36991733  0.19221184  0.94693803     0.16200
H310        H  0.42098817  0.16944358  0.87974648     0.02000
H311        H  0.37915370  0.11308805  0.93298581     0.16500
H312        H  0.44057166  0.15581564  0.96346277     0.16300
C313        C  0.55949762  0.15949820  0.94566365     0.88100
C314        C  0.56659817  0.13953421  0.92335440    -0.52100
C315        C  0.55133580  0.14260188  0.90038834     0.11000
C316        C  0.53058387  0.16514530  0.90187697     0.22000
C317        C  0.56277205  0.18738147  0.93219625    -0.52900
C318        C  0.54773520  0.19022229  0.90904960     0.11100
C319        C  0.52902316  0.15485427  0.94940622    -0.52400
C320        C  0.51374293  0.15825072  0.92698167     0.11700
H321        H  0.58209001  0.12453961  0.92550065     0.16200
H322        H  0.51820627  0.16722111  0.88324777     0.02000
H323        H  0.57654414  0.20283666  0.93968193     0.16500
H324        H  0.52020063  0.14756340  0.96805085     0.16300
C325        C  0.56211208  0.17051729  0.01908755     0.88100
C326        C  0.57029676  0.19153444  0.04042889    -0.52100
C327        C  0.55606462  0.18900155  0.06408266     0.11000
C328        C  0.53551895  0.16520868  0.06412727     0.22000
C329        C  0.56609983  0.14328321  0.03314951    -0.52900
C330        C  0.55254329  0.14053412  0.05697633     0.11100
C331        C  0.53146755  0.17361392  0.01635755    -0.52400
C332        C  0.51733326  0.17022974  0.03941951     0.11700
H333        H  0.58514902  0.20735826  0.03652038     0.16200
H334        H  0.52373703  0.16337596  0.08298742     0.02000
H335        H  0.57915316  0.12787992  0.02549222     0.16500
H336        H  0.52165154  0.17957573  0.99777758     0.16300
C337        C  0.39644760  0.03475738  0.13814034     0.88100
C338        C  0.38407935  0.04765933  0.16341173    -0.52100
C339        C  0.39639773  0.07156641  0.17048208     0.11000
C340        C  0.41912704  0.08065216  0.15091839     0.22000
C341        C  0.39401798  0.05632197  0.11598439    -0.52900
C342        C  0.40576217  0.08052875  0.12288891     0.11100
C343        C  0.42681918  0.03377658  0.14441899    -0.52400
C344        C  0.43874866  0.05740600  0.15086159     0.11700
H345        H  0.36785250  0.03843022  0.17510521     0.16200
H346        H  0.42922552  0.10008561  0.15555899     0.02000
H347        H  0.38391466  0.05257306  0.09688141     0.16500
H348        H  0.43856131  0.01596150  0.14376447     0.16300
C349        C  0.39385130  0.95865320  0.14445371     0.88100
C350        C  0.37975842  0.94109569  0.12285569    -0.52100
C351        C  0.39074497  0.91613771  0.12090439     0.11000
C352        C  0.41401808  0.91086738  0.14100793     0.22000
C353        C  0.39164503  0.94208488  0.17048194    -0.52900
C354        C  0.40218071  0.91707664  0.16885505     0.11100
C355        C  0.42410810  0.95814076  0.13728956    -0.52400
C356        C  0.43488411  0.93330593  0.13553310     0.11700
H357        H  0.36324095  0.94781033  0.11013879     0.16200
H358        H  0.42254793  0.89052128  0.13950833     0.02000
H359        H  0.38225330  0.94974017  0.18846289     0.16500
H360        H  0.43630846  0.97587691  0.13449572     0.16300
C361        C  0.55204932  0.97633544  0.12187533     0.88100
C362        C  0.55816152  0.96124687  0.14861911    -0.52100
C363        C  0.54676903  0.93588930  0.14983388     0.11000
C364        C  0.53042064  0.92817652  0.12439164     0.22000
C365        C  0.56183416  0.95757961  0.09961669    -0.52900
C366        C  0.55081376  0.93221697  0.10097996     0.11100
C367        C  0.52114671  0.97521708  0.11911964    -0.52400
C368        C  0.50962934  0.95040364  0.12054781     0.11700
H369        H  0.57027895  0.96956237  0.16491907     0.16200
H370        H  0.52073695  0.90796223  0.12534587     0.02000
H371        H  0.57594658  0.96388159  0.08401754     0.16500
H372        H  0.50908685  0.99292516  0.11599847     0.16300
C373        C  0.55691173  0.05028317  0.14058162     0.88100
C374        C  0.56203973  0.06962302  0.11654201    -0.52100
C375        C  0.55039524  0.09419855  0.11990636     0.11000
C376        C  0.53514196  0.09692933  0.14651615     0.22000
C377        C  0.56728682  0.06567069  0.16551099    -0.52900
C378        C  0.55572941  0.09009407  0.16864529     0.11100
C379        C  0.52594715  0.04935460  0.14374773    -0.52400
C380        C  0.51447832  0.07378250  0.14677315     0.11700
H381        H  0.57360181  0.06437126  0.09889780     0.16200
H382        H  0.52560923  0.11670630  0.14914442     0.02000
H383        H  0.58177079  0.05743813  0.17964467     0.16500
H384        H  0.51419626  0.03081444  0.14293559     0.16300
C385        C  0.94063706  0.83680464  0.40135978     0.88100
C386        C  0.92333782  0.81561624  0.38599916    -0.52100
C387        C  0.89857754  0.81058468  0.39789641     0.11000
C388        C  0.89351085  0.82691000  0.42340021     0.22000
C389        C  0.92226796  0.86149057  0.40321589    -0.52900
C390        C  0.89740304  0.85612572  0.41456944     0.11100
C391        C  0.94192455  0.82551481  0.42997384    -0.52400
C392        C  0.91770024  0.82081171  0.44164536     0.11700
H393        H  0.93002488  0.80542498  0.36805354     0.16200
H394        H  0.87357233  0.82235304  0.43289621     0.02000
H395        H  0.92853839  0.88117282  0.39603154     0.16500
H396        H  0.96032247  0.82030635  0.44029645     0.16300
C397        C  0.01662561  0.82726856  0.40109051     0.88100
C398        C  0.03580258  0.84935102  0.39009392    -0.52100
C399        C  0.06060567  0.85072087  0.40299799     0.11000
C400        C  0.06401840  0.82880802  0.42530545     0.22000
C401        C  0.03254360  0.80130494  0.39886136    -0.52900
C402        C  0.05735377  0.80179708  0.41121233     0.11100
C403        C  0.01568238  0.83319602  0.43123823    -0.52400
C404        C  0.03991346  0.83345690  0.44417385     0.11700
H405        H  0.02964982  0.86374847  0.37493960     0.16200
H406        H  0.08354731  0.82937983  0.43641475     0.02000
H407        H  0.02463900  0.78371060  0.38842193     0.16500
H408        H  0.99771415  0.83927394  0.44157550     0.16300
C409        C  0.93290233  0.81933226  0.55807554     0.88100
C410        C  0.91633770  0.84398967  0.56602873    -0.52100
C411        C  0.89063267  0.84352011  0.55530442     0.11000
C412        C  0.88405396  0.81917572  0.53793841     0.22000
C413        C  0.91526514  0.79487454  0.56674108    -0.52900
C414        C  0.88959141  0.79507542  0.55597789     0.11100
C415        C  0.93175647  0.81886272  0.52718187    -0.52400
C416        C  0.90609431  0.81885542  0.51669512     0.11700
H417        H  0.92414308  0.86002849  0.57874624     0.16200
H418        H  0.86328350  0.81928136  0.52904764     0.02000
H419        H  0.92253318  0.77902605  0.57972572     0.16500
H420        H  0.94983686  0.81951355  0.51481321     0.16300
C421        C  0.01027814  0.83500558  0.55704243     0.88100
C422        C  0.02385958  0.81106488  0.57093780    -0.52100
C423        C  0.05072224  0.80863867  0.56481624     0.11000
C424        C  0.06175437  0.83096073  0.54586287     0.22000
C425        C  0.02763899  0.85961500  0.56531923    -0.52900
C426        C  0.05464592  0.85742865  0.55973205     0.11100
C427        C  0.01632279  0.83153713  0.52702347    -0.52400
C428        C  0.04320528  0.82972982  0.52091942     0.11700
H429        H  0.01341543  0.79694242  0.58408624     0.16200
H430        H  0.08354589  0.83011256  0.54070932     0.02000
H431        H  0.01915556  0.87760662  0.57373053     0.16500
H432        H  0.00044510  0.83071368  0.51175996     0.16300
C433        C  0.82990288  0.02682070  0.39899290     0.88100
C434        C  0.80112242  0.03765651  0.39448710    -0.52100
C435        C  0.79557140  0.05975088  0.40938443     0.11000
C436        C  0.81955581  0.06932991  0.42726513     0.22000
C437        C  0.84890120  0.05073650  0.39272077    -0.52900
C438        C  0.84363636  0.07307933  0.40774580     0.11100
C439        C  0.83303480  0.02319230  0.42943882    -0.52400
C440        C  0.82706100  0.04488725  0.44438602     0.11700
H441        H  0.78653220  0.02932757  0.38022999     0.16200
H442        H  0.81574907  0.08753226  0.43917164     0.02000
H443        H  0.86521128  0.04963108  0.37825340     0.16500
H444        H  0.84077441  0.00512592  0.43858790     0.16300
C445        C  0.82029653  0.95403187  0.39488425     0.88100
C446        C  0.84773084  0.94000982  0.39296579    -0.52100
C447        C  0.84887956  0.91639297  0.40701918     0.11000
C448        C  0.82219819  0.90936101  0.42217428     0.22000
C449        C  0.79928701  0.93295066  0.38560506    -0.52900
C450        C  0.79976490  0.90959929  0.40023914     0.11100
C451        C  0.81464291  0.95688796  0.42491010    -0.52400
C452        C  0.81651553  0.93406626  0.43949547     0.11700
H453        H  0.86452930  0.94770677  0.38098164     0.16200
H454        H  0.82202367  0.89060586  0.43403880     0.02000
H455        H  0.78492119  0.93678783  0.36950739     0.16500
H456        H  0.80834321  0.97538414  0.43394747     0.16300
C457        C  0.82973932  0.95158976  0.55648721     0.88100
C458        C  0.80485370  0.93540573  0.56697265    -0.52100
C459        C  0.80314806  0.90983850  0.55693026     0.11000
C460        C  0.82656865  0.90296770  0.53802296     0.22000
C461        C  0.85433821  0.93470454  0.56376553    -0.52900
C462        C  0.85271735  0.90920627  0.55437191     0.11100
C463        C  0.82761100  0.94986739  0.52573050    -0.52400
C464        C  0.82570669  0.92441075  0.51592516     0.11700
H465        H  0.79011221  0.94337536  0.58072720     0.16200
H466        H  0.82508682  0.88246353  0.52959092     0.02000
H467        H  0.87169746  0.94235669  0.57515861     0.16500
H468        H  0.82855565  0.96742303  0.51284948     0.16300
C469        C  0.81579039  0.02615731  0.56108524     0.88100
C470        C  0.84202175  0.04133964  0.56965834    -0.52100
C471        C  0.84378879  0.06701210  0.56006584     0.11000
C472        C  0.81890938  0.07500864  0.54284998     0.22000
C473        C  0.79258539  0.04370097  0.57056645    -0.52900
C474        C  0.79412504  0.06940637  0.56090519     0.11100
C475        C  0.81498792  0.02837393  0.53036643    -0.52400
C476        C  0.81704987  0.05386446  0.52066100     0.11700
H477        H  0.85800065  0.03243876  0.58163024     0.16200
H478        H  0.81970743  0.09552908  0.53432947     0.02000
H479        H  0.77652571  0.03615936  0.58353014     0.16500
H480        H  0.81249709  0.01105705  0.51744360     0.16300
C481        C  0.13967916  0.01777017  0.41377262     0.88100
C482        C  0.11887552  0.03818018  0.40342542    -0.52100
C483        C  0.12502441  0.06416258  0.41061882     0.11000
C484        C  0.15116338  0.06715938  0.42721513     0.22000
C485        C  0.16753535  0.02834632  0.40321752    -0.52900
C486        C  0.17334162  0.05435502  0.41013219     0.11100
C487        C  0.14119478  0.02260189  0.44412652    -0.52400
C488        C  0.14697616  0.04835910  0.45123792     0.11700
H489        H  0.10079524  0.03232567  0.39217441     0.16200
H490        H  0.15573090  0.08801300  0.43369175     0.02000
H491        H  0.18158960  0.01684074  0.39153001     0.16500
H492        H  0.13605385  0.00709447  0.45872242     0.16300
C493        C  0.14701423  0.94088069  0.40985179     0.88100
C494        C  0.17212700  0.92619578  0.40011872    -0.52100
C495        C  0.17425489  0.90089243  0.40979635     0.11000
C496        C  0.15053558  0.89208940  0.42782881     0.22000
C497        C  0.12260928  0.92242998  0.40152562    -0.52900
C498        C  0.12481965  0.89659067  0.41108770     0.11100
C499        C  0.14842915  0.93864028  0.44086698    -0.52400
C500        C  0.15000751  0.91292942  0.45013525     0.11700
H501        H  0.18767284  0.93544357  0.38751537     0.16200
H502        H  0.15156288  0.87142101  0.43580619     0.02000
H503        H  0.10564721  0.92914514  0.38943430     0.16500
H504        H  0.14737502  0.95578184  0.45413009     0.16300
C505        C  0.12263699  0.89700994  0.56492340     0.88100
C506        C  0.11707935  0.92700601  0.57026669    -0.52100
C507        C  0.13824514  0.94382111  0.56296263     0.11000
C508        C  0.16254092  0.92899164  0.55149713     0.22000
C509        C  0.12991259  0.89584001  0.53514141    -0.52900
C510        C  0.15053221  0.91292029  0.52783559     0.11100
C511        C  0.14939402  0.89162693  0.58010471    -0.52400
C512        C  0.17042684  0.90880817  0.57365747     0.11700
H513        H  0.09832601  0.93400570  0.57880800     0.16200
H514        H  0.17972432  0.94239755  0.54538401     0.02000
H515        H  0.11793855  0.88409548  0.52089028     0.16500
H516        H  0.14999929  0.87883192  0.59782013     0.16300
C517        C  0.10387753  0.06502936  0.56015617     0.88100
C518        C  0.11347805  0.06396765  0.53085254    -0.52100
C519        C  0.13542042  0.04830256  0.52707160     0.11000
C520        C  0.14570510  0.03498980  0.55284296     0.22000
C521        C  0.09869452  0.03559266  0.56800996    -0.52900
C522        C  0.12052949  0.01951934  0.56415921     0.11100
C523        C  0.12917228  0.07380539  0.57644987    -0.52400
C524        C  0.15147875  0.05859520  0.57199588     0.11700
H525        H  0.10304660  0.07401230  0.51449053     0.16200
H526        H  0.16389132  0.02297156  0.54911697     0.02000
H527        H  0.07916634  0.02795035  0.57496592     0.16500
H528        H  0.13003894  0.09239373  0.58766032     0.16300
C529        C  0.02081271  0.13362287  0.39889718     0.88100
C530        C  0.03719920  0.15787062  0.38808705    -0.52100
C531        C  0.06300561  0.15997951  0.39822662     0.11000
C532        C  0.07039849  0.13676675  0.41747123     0.22000
C533        C  0.03775135  0.10931711  0.39189865    -0.52900
C534        C  0.06376622  0.11060627  0.40160797     0.11100
C535        C  0.02302673  0.13543728  0.42962446    -0.52400
C536        C  0.04870853  0.13736677  0.43949377     0.11700
H537        H  0.02883316  0.17271722  0.37454836     0.16200
H538        H  0.09120888  0.13817292  0.42588047     0.02000
H539        H  0.02947649  0.09198068  0.38130507     0.16500
H540        H  0.00575592  0.13540482  0.44274080     0.16300
C541        C  0.94611883  0.14999106  0.40104109     0.88100
C542        C  0.92863721  0.12616572  0.39103234    -0.52100
C543        C  0.90382932  0.12387195  0.40318898     0.11000
C544        C  0.89881646  0.14603926  0.42416045     0.22000
C545        C  0.92842936  0.17461808  0.39658213    -0.52900
C546        C  0.90357163  0.17256650  0.40887857     0.11100
C547        C  0.94721797  0.14669274  0.43156019    -0.52400
C548        C  0.92285882  0.14442940  0.44365383     0.11700
H549        H  0.93556807  0.11188767  0.37630605     0.16200
H550        H  0.87913237  0.14472814  0.43473320     0.02000
H551        H  0.93548454  0.19212954  0.38550847     0.16500
H552        H  0.96569537  0.14723347  0.44325177     0.16300
C553        C  0.93617117  0.15041072  0.56033217     0.88100
C554        C  0.92095406  0.17554821  0.56940667    -0.52100
C555        C  0.89563195  0.17766489  0.55820907     0.11000
C556        C  0.88777118  0.15443844  0.53953155     0.22000
C557        C  0.91691804  0.12656764  0.56740577    -0.52900
C558        C  0.89132269  0.12913471  0.55661432     0.11100
C559        C  0.93557809  0.15213902  0.52953234    -0.52400
C560        C  0.91021930  0.15350929  0.51857725     0.11700
H561        H  0.92975044  0.19038996  0.58292894     0.16200
H562        H  0.86722841  0.15607315  0.53036734     0.02000
H563        H  0.92275835  0.10988733  0.58006884     0.16500
H564        H  0.95386198  0.15245821  0.51744256     0.16300
C565        C  0.05014993  0.17661958  0.55196664     0.88100
C566        C  0.06951839  0.15571318  0.56297867    -0.52100
C567        C  0.06195020  0.12991403  0.55745045     0.11000
C568        C  0.03489377  0.12750152  0.54149007     0.22000
C569        C  0.04802726  0.17037186  0.52176960    -0.52900
C570        C  0.04047462  0.14459772  0.51616569     0.11100
C571        C  0.02233835  0.16914737  0.56339604    -0.52400
C572        C  0.01367948  0.14351103  0.55758649     0.11700
H573        H  0.08914614  0.16101818  0.57177329     0.16200
H574        H  0.02844375  0.10657812  0.53688939     0.02000
H575        H  0.05233693  0.18507012  0.50611602     0.16500
H576        H  0.00988745  0.18400443  0.57283810     0.16300
In577      In  0.82388817  0.27221115  0.40427645     1.36900
C578        C  0.83015763  0.29293007  0.45345756     0.79200
O579        O  0.78035527  0.26438908  0.41547569    -0.59300
O580        O  0.80021311  0.23584406  0.39131292    -0.50200
C581        C  0.82075697  0.30634946  0.36295890     0.71900
O582        O  0.83417643  0.31180364  0.38396415    -0.45000
C583        C  0.86362970  0.23736908  0.39981827     0.76600
O584        O  0.84981448  0.28606547  0.43919569    -0.56900
O585        O  0.84410292  0.23429748  0.41587682    -0.47000
O586        O  0.80737312  0.29101526  0.44189119    -0.53300
C587        C  0.77885530  0.24231694  0.40327896     0.86700
O588        O  0.80869862  0.28402758  0.36346075    -0.55200
O589        O  0.86320622  0.25869376  0.38618092    -0.58500
In590      In  0.82996480  0.39379554  0.26832929     1.36900
C591        C  0.82224904  0.44339110  0.28535865     0.79200
O592        O  0.86781358  0.37591636  0.25110942    -0.59300
O593        O  0.85363713  0.41226092  0.23447208    -0.50200
C594        C  0.83387231  0.36231404  0.31167704     0.71900
O595        O  0.84832264  0.38309705  0.30856980    -0.45000
C596        C  0.78880766  0.38243256  0.23505544     0.76600
O597        O  0.84566219  0.43445076  0.28155281    -0.56900
O598        O  0.81214825  0.37328636  0.23159072    -0.47000
O599        O  0.80319295  0.42666929  0.28170037    -0.53300
C600        C  0.87091795  0.39405280  0.23357054     0.86700
O601        O  0.81798784  0.35722604  0.29234306    -0.55200
O602        O  0.78613507  0.39538898  0.25653450    -0.58500
In603      In  0.69820748  0.41669549  0.15129993     1.36900
C604        C  0.67809299  0.46574146  0.15333558     0.79200
O605        O  0.70857690  0.41757015  0.19515270    -0.59300
O606        O  0.72940399  0.39012283  0.17060218    -0.50200
C607        C  0.65690852  0.38154772  0.14281705     0.71900
O608        O  0.66871103  0.39380721  0.12387238    -0.45000
C609        C  0.74117262  0.42523120  0.11978471     0.76600
O610        O  0.68127706  0.45359701  0.13143167    -0.56900
O611        O  0.73494992  0.44030902  0.13887930    -0.47000
O612        O  0.68280829  0.45195533  0.17400069    -0.53300
C613        C  0.72674219  0.40030283  0.19362678     0.86700
O614        O  0.66599069  0.38751541  0.16576387    -0.55200
O615        O  0.72518464  0.40537984  0.11633531    -0.58500
In616      In  0.69741579  0.14304228  0.41140806     1.36900
C617        C  0.67588685  0.15116500  0.45950985     0.79200
O618        O  0.72187812  0.10703162  0.39943567    -0.59300
O619        O  0.73009180  0.12530265  0.43709824    -0.50200
C620        C  0.65690137  0.13776035  0.37514973     0.71900
O621        O  0.66318593  0.11919779  0.39109742    -0.45000
C622        C  0.73174858  0.18154633  0.39630637     0.76600
O623        O  0.67603603  0.12827314  0.44887316    -0.56900
O624        O  0.73204775  0.15844518  0.38623399    -0.47000
O625        O  0.68446715  0.16988420  0.44462999    -0.53300
C626        C  0.73648160  0.10769607  0.42043562     0.86700
O627        O  0.67124623  0.15868747  0.37779382    -0.55200
O628        O  0.71279881  0.18536815  0.41269914    -0.58500
In629      In  0.56844835  0.15388336  0.27896059     1.36900
C630        C  0.51784915  0.14317060  0.29559450     0.79200
O631        O  0.55292079  0.19480541  0.26965465    -0.59300
O632        O  0.58743619  0.18159306  0.24832008    -0.50200
C633        C  0.60661702  0.15454737  0.31805917     0.71900
O634        O  0.59145764  0.13440434  0.31371534    -0.45000
C635        C  0.57372459  0.12126535  0.23715742     0.76600
O636        O  0.53305118  0.12559209  0.28635786    -0.56900
O637        O  0.55749303  0.14030271  0.23783232    -0.47000
O638        O  0.52947080  0.16557510  0.29933819    -0.53300
C639        C  0.56999013  0.19950144  0.25129494     0.86700
O640        O  0.60192738  0.17411144  0.30292721    -0.55200
O641        O  0.58810863  0.11880744  0.25810246    -0.58500
In642      In  0.56922947  0.28289472  0.15291203     1.36900
C643        C  0.51840160  0.30098664  0.15583507     0.79200
O644        O  0.58689597  0.26983413  0.11309453    -0.59300
O645        O  0.55564710  0.24587978  0.13044280    -0.50200
C646        C  0.60492555  0.32436610  0.15612445     0.71900
O647        O  0.59020653  0.32047324  0.13560853    -0.45000
C648        C  0.57993444  0.24788756  0.19207913     0.76600
O649        O  0.52921899  0.29477337  0.13388184    -0.56900
O650        O  0.59571556  0.25202518  0.17254138    -0.47000
O651        O  0.53420461  0.30007110  0.17576377    -0.53300
C652        C  0.57191501  0.24912754  0.11119102     0.86700
O653        O  0.60101103  0.30758641  0.17463923    -0.55200
O654        O  0.55906751  0.26204753  0.19185781    -0.58500
In655      In  0.69485536  0.14711796  0.58340489     1.36900
C656        C  0.67386912  0.14017105  0.53438466     0.79200
O657        O  0.70223140  0.18985298  0.57152393    -0.59300
O658        O  0.72933659  0.17265248  0.59975211    -0.50200
C659        C  0.66025030  0.14931033  0.62459129     0.71900
O660        O  0.65333597  0.15387629  0.60062420    -0.45000
C661        C  0.73037819  0.10790515  0.58052498     0.76600
O662        O  0.67477089  0.12137543  0.55134064    -0.56900
O663        O  0.73552011  0.13147934  0.57274939    -0.47000
O664        O  0.68170120  0.16261274  0.54324964    -0.53300
C665        C  0.72345337  0.19270633  0.58551855     0.86700
O666        O  0.68468688  0.14322301  0.62749589    -0.55200
O667        O  0.70698793  0.10429577  0.59023785    -0.58500
In668      In  0.56392020  0.17007953  0.70853283     1.36900
C669        C  0.55513768  0.13490614  0.74796333     0.79200
O670        O  0.59414789  0.19027283  0.73656711    -0.59300
O671        O  0.56092247  0.21274034  0.72281433    -0.50200
C672        C  0.59841668  0.16463909  0.66771776     0.71900
O673        O  0.60223936  0.15407248  0.69043565    -0.45000
C674        C  0.51374673  0.16910861  0.68832522     0.76600
O675        O  0.56842835  0.12867180  0.72731305    -0.56900
O676        O  0.52747992  0.19044555  0.69149061    -0.47000
O677        O  0.54637967  0.15837241  0.74783716    -0.53300
C678        C  0.58139691  0.21173848  0.73806212     0.86700
O679        O  0.57706716  0.17782570  0.66588604    -0.55200
O680        O  0.52630384  0.14798067  0.69381644    -0.58500
In681      In  0.56685923  0.29455667  0.83327626     1.36900
C682        C  0.51551100  0.30850064  0.83961389     0.79200
O683        O  0.55642351  0.28815789  0.78977066    -0.59300
O684        O  0.58824550  0.26535216  0.80619943    -0.50200
C685        C  0.60151936  0.33709864  0.83260447     0.71900
O686        O  0.57625002  0.33903391  0.83016814    -0.45000
C687        C  0.56682962  0.25617469  0.87137206     0.76600
O688        O  0.52597685  0.30418030  0.81702649    -0.56900
O689        O  0.55502578  0.25365251  0.84894478    -0.47000
O690        O  0.53185470  0.30741761  0.85924184    -0.53300
C691        C  0.57319736  0.26996764  0.78614167     0.86700
O692        O  0.60919406  0.31348740  0.83639219    -0.55200
O693        O  0.57935449  0.27829702  0.87432515    -0.58500
In694      In  0.82065115  0.27838478  0.57793842     1.36900
C695        C  0.81558753  0.29735159  0.52792192     0.79200
O696        O  0.86158408  0.26311765  0.59203240    -0.59300
O697        O  0.84019629  0.24249902  0.56107452    -0.50200
C698        C  0.81915668  0.31827177  0.61373393     0.71900
O699        O  0.79985501  0.30194999  0.60978159    -0.45000
C700        C  0.78323644  0.24201664  0.59171079     0.76600
O701        O  0.83826662  0.29526302  0.53950197    -0.56900
O702        O  0.80436996  0.24624903  0.60565528    -0.47000
O703        O  0.79551845  0.29244555  0.54279745    -0.53300
C704        C  0.86078654  0.24345371  0.57616509     0.86700
O705        O  0.83938747  0.31482792  0.59884016    -0.55200
O706        O  0.78086715  0.25706253  0.57139764    -0.58500
In707      In  0.70287758  0.42202191  0.82442116     1.36900
C708        C  0.68184978  0.46769824  0.84063489     0.79200
O709        O  0.73051267  0.41253188  0.85910821    -0.59300
O710        O  0.74261006  0.44332353  0.83179077    -0.50200
C711        C  0.66632347  0.38187259  0.83108469     0.71900
O712        O  0.66059670  0.40336043  0.81909523    -0.45000
C713        C  0.72749093  0.41444130  0.77754755     0.76600
O714        O  0.68928170  0.44976983  0.85681795    -0.56900
O715        O  0.72983339  0.39887155  0.79735356    -0.47000
O716        O  0.68257949  0.46117432  0.81609229    -0.53300
C717        C  0.74817277  0.43009555  0.85261970     0.86700
O718        O  0.69040204  0.38108969  0.83952957    -0.55200
O719        O  0.71029234  0.43249924  0.78065866    -0.58500
In720      In  0.83268352  0.41004193  0.70375558     1.36900
C721        C  0.83184287  0.46029250  0.68563075     0.79200
O722        O  0.78986139  0.41825607  0.71637225    -0.59300
O723        O  0.81048787  0.38684085  0.73606386    -0.50200
C724        C  0.83570706  0.37631768  0.66196896     0.71900
O725        O  0.81626500  0.37617161  0.67823257    -0.45000
C726        C  0.87134330  0.40889674  0.74194344     0.76600
O727        O  0.85357033  0.44846750  0.69090847    -0.56900
O728        O  0.85473329  0.42753606  0.73924496    -0.47000
O729        O  0.81074024  0.44572434  0.68733909    -0.53300
C730        C  0.78930534  0.40049441  0.73444507     0.86700
O731        O  0.85361776  0.39398871  0.66674159    -0.55200
O732        O  0.86843881  0.39046812  0.72482752    -0.58500
In733      In  0.56868065  0.71797527  0.83393841     1.36900
C734        C  0.51819657  0.69738161  0.83104562     0.79200
O735        O  0.58611277  0.73730612  0.87178949    -0.59300
O736        O  0.55092945  0.75364534  0.85406150    -0.50200
C737        C  0.60430567  0.67808525  0.83478661     0.71900
O738        O  0.59088872  0.68422377  0.85528028    -0.45000
C739        C  0.58148652  0.75098321  0.79351372     0.76600
O740        O  0.52976036  0.70263100  0.85314852    -0.56900
O741        O  0.59520576  0.74989300  0.81496487    -0.47000
O742        O  0.53317905  0.70041000  0.81083819    -0.53300
C743        C  0.56837806  0.75513159  0.87270061     0.86700
O744        O  0.59897537  0.69171116  0.81423915    -0.55200
O745        O  0.56155284  0.73480010  0.79246299    -0.58500
In746      In  0.69901065  0.59209677  0.84749909     1.36900
C747        C  0.67817602  0.54312637  0.83924498     0.79200
O748        O  0.71709599  0.57849319  0.80883230    -0.59300
O749        O  0.72842604  0.61722958  0.82251638    -0.50200
C750        C  0.65782809  0.62624823  0.85355562     0.71900
O751        O  0.66911109  0.61512200  0.87328911    -0.45000
C752        C  0.73836556  0.58936061  0.88501065     0.76600
O753        O  0.68736322  0.55049986  0.86185954    -0.56900
O754        O  0.73618971  0.60904041  0.86917520    -0.47000
O755        O  0.67755873  0.56138865  0.82174191    -0.53300
C756        C  0.73066264  0.59965201  0.80457377     0.86700
O757        O  0.66753740  0.61989945  0.83128416    -0.55200
O758        O  0.71956757  0.57206458  0.88274497    -0.58500
In759      In  0.80471545  0.58230862  0.70105667     1.36900
C760        C  0.80704420  0.53171622  0.68440616     0.79200
O761        O  0.84636265  0.60183420  0.70771683    -0.59300
O762        O  0.83054037  0.57390685  0.73614950    -0.50200
C763        C  0.79665127  0.61798923  0.66203152     0.71900
O764        O  0.81011570  0.59717748  0.65850088    -0.45000
C765        C  0.76634456  0.58598939  0.73816938     0.76600
O766        O  0.82775382  0.54541920  0.69097260    -0.56900
O767        O  0.78730740  0.60086765  0.73805410    -0.47000
O768        O  0.78518877  0.54438668  0.68465389    -0.53300
C769        C  0.84985215  0.58946945  0.72962454     0.86700
O770        O  0.78729630  0.62041101  0.68530370    -0.55200
O771        O  0.76441636  0.56998033  0.71865440    -0.58500
In772      In  0.80276984  0.70077755  0.56409371     1.36900
C773        C  0.79990774  0.68680309  0.51244125     0.79200
O774        O  0.76222982  0.72038606  0.55822352    -0.59300
O775        O  0.78867422  0.73510177  0.58890748    -0.50200
C776        C  0.80158239  0.65865875  0.59711373     0.71900
O777        O  0.81516646  0.65921062  0.57580825    -0.45000
C778        C  0.84702188  0.73151987  0.56806194     0.76600
O779        O  0.82191037  0.69172925  0.52462896    -0.56900
O780        O  0.82747840  0.73597890  0.55234932    -0.47000
O781        O  0.77913333  0.68715073  0.52716922    -0.53300
C782        C  0.76671811  0.73778084  0.57619672     0.86700
O783        O  0.78749795  0.67900142  0.60081972    -0.55200
O784        O  0.84455260  0.71030397  0.58172982    -0.58500
In785      In  0.57186217  0.84122942  0.70437740     1.36900
C786        C  0.52024106  0.84864768  0.68969276     0.79200
O787        O  0.56101284  0.79746105  0.71020099    -0.59300
O788        O  0.58849930  0.81615646  0.73766760    -0.50200
C789        C  0.61089180  0.84113795  0.66664505     0.71900
O790        O  0.58632711  0.84494080  0.66094246    -0.45000
C791        C  0.57518447  0.87936214  0.74170117     0.76600
O792        O  0.53675490  0.86775775  0.69398275    -0.56900
O793        O  0.56417458  0.85674602  0.74571846    -0.47000
O794        O  0.53067169  0.82581942  0.69063923    -0.53300
C795        C  0.57494079  0.79541004  0.73147304     0.86700
O796        O  0.61532020  0.83753094  0.69127535    -0.55200
O797        O  0.58514270  0.88249487  0.71851885    -0.58500
In798      In  0.69228838  0.84044388  0.56476818     1.36900
C799        C  0.67926433  0.84954376  0.51331165     0.79200
O800        O  0.70939333  0.88128787  0.57648504    -0.59300
O801        O  0.73626751  0.85251470  0.56135658    -0.50200
C802        C  0.65172689  0.84369570  0.60073026     0.71900
O803        O  0.64839409  0.84743898  0.57591803    -0.45000
C804        C  0.71347419  0.79166294  0.56694882     0.76600
O805        O  0.69020369  0.86704885  0.52822053    -0.56900
O806        O  0.71930790  0.80964854  0.58387113    -0.47000
O807        O  0.67318476  0.82787239  0.52514673    -0.53300
C808        C  0.73337638  0.87600595  0.56985342     0.86700
O809        O  0.67575208  0.83851162  0.60724249    -0.55200
O810        O  0.69574765  0.79811585  0.54993780    -0.58500
In811      In  0.70105938  0.58880245  0.14243686     1.36900
C812        C  0.68045419  0.53949224  0.13669527     0.79200
O813        O  0.71437560  0.59537053  0.09962179    -0.59300
O814        O  0.74274628  0.57986170  0.12762816    -0.50200
C815        C  0.66483105  0.62787088  0.14112303     0.71900
O816        O  0.65888944  0.60462545  0.14933036    -0.45000
C817        C  0.72995465  0.59523792  0.18754008     0.76600
O818        O  0.68531526  0.55458243  0.11684252    -0.56900
O819        O  0.73091441  0.61176511  0.16837182    -0.47000
O820        O  0.68408916  0.55037280  0.15930589    -0.53300
C821        C  0.73812715  0.58739298  0.10382394     0.86700
O822        O  0.68896273  0.63097403  0.13371079    -0.55200
O823        O  0.71308659  0.57623312  0.18432299    -0.58500
In824      In  0.56848799  0.71224021  0.14780954     1.36900
C825        C  0.51643744  0.69731013  0.14297936     0.79200
O826        O  0.56191104  0.72699710  0.18991627    -0.59300
O827        O  0.59472650  0.74394128  0.16795298    -0.50200
C828        C  0.60202564  0.67079812  0.14913286     0.71900
O829        O  0.57885543  0.66987281  0.15949813    -0.45000
C830        C  0.56879860  0.74774773  0.10810253     0.76600
O831        O  0.53161572  0.70052995  0.12286888    -0.56900
O832        O  0.55997129  0.75249093  0.13131767    -0.47000
O833        O  0.52835335  0.69980527  0.16537230    -0.53300
C834        C  0.58054965  0.74456703  0.18891333     0.86700
O835        O  0.60801791  0.69278692  0.13805436    -0.55200
O836        O  0.57727028  0.72428334  0.10480957    -0.58500
In837      In  0.82045957  0.56843746  0.27431188     1.36900
C838        C  0.83058345  0.51873482  0.28936885     0.79200
O839        O  0.77759635  0.55627350  0.26292288    -0.59300
O840        O  0.79464447  0.59139572  0.24534187    -0.50200
C841        C  0.81902214  0.60320457  0.31466413     0.71900
O842        O  0.81440746  0.57859635  0.31817818    -0.45000
C843        C  0.85951844  0.57179099  0.23801406     0.76600
O844        O  0.84898819  0.53659398  0.28820975    -0.56900
O845        O  0.83718694  0.55970381  0.23388244    -0.47000
O846        O  0.80689586  0.52688080  0.28498550    -0.53300
C847        C  0.77471028  0.57526305  0.24650281     0.86700
O848        O  0.82436644  0.60973118  0.29080810    -0.55200
O849        O  0.86188519  0.58258671  0.26081794    -0.58500
In850      In  0.57577257  0.85559611  0.24895590     1.36900
C851        C  0.52641187  0.84557314  0.26811239     0.79200
O852        O  0.59070636  0.89442799  0.22900757    -0.59300
O853        O  0.55387621  0.87697657  0.21517745    -0.50200
C854        C  0.60895454  0.85766722  0.29212488     0.71900
O855        O  0.58950292  0.87330258  0.28898222    -0.45000
C856        C  0.59001271  0.81303879  0.22083603     0.76600
O857        O  0.53921056  0.86704286  0.27342816    -0.56900
O858        O  0.59813195  0.83643888  0.21467704    -0.47000
O859        O  0.53897512  0.82953253  0.25364626    -0.53300
C860        C  0.57099681  0.89586121  0.21273936     0.86700
O861        O  0.61252536  0.84237902  0.27249612    -0.55200
O862        O  0.57574253  0.81157892  0.24178119    -0.58500
In863      In  0.81972386  0.70879643  0.38806337     1.36900
C864        C  0.82036333  0.69159891  0.43885994     0.79200
O865        O  0.86430105  0.71986277  0.38478136    -0.59300
O866        O  0.83622030  0.75074870  0.39097838    -0.50200
C867        C  0.82268812  0.66946600  0.35232731     0.71900
O868        O  0.81308384  0.66568215  0.37547926    -0.45000
C869        C  0.77621499  0.73729893  0.37610713     0.76600
O870        O  0.84153619  0.69855449  0.42632350    -0.56900
O871        O  0.79375657  0.73163456  0.35888031    -0.47000
O872        O  0.79885429  0.69190701  0.42495979    -0.53300
C873        C  0.86060671  0.74458422  0.38743285     0.86700
O874        O  0.83058671  0.69301913  0.34767108    -0.55200
O875        O  0.78013601  0.72720260  0.39902444    -0.58500
In876      In  0.69401763  0.83200024  0.38858454     1.36900
C877        C  0.67383415  0.83515464  0.43831068     0.79200
O878        O  0.70001165  0.78992128  0.40299245    -0.59300
O879        O  0.72513841  0.80500844  0.37149322    -0.50200
C880        C  0.65974131  0.83491983  0.34637597     0.71900
O881        O  0.65829439  0.85036871  0.36627077    -0.45000
C882        C  0.73373407  0.86910266  0.38597276     0.76600
O883        O  0.68863708  0.85321626  0.42797069    -0.56900
O884        O  0.73673978  0.84670443  0.39716797    -0.47000
O885        O  0.66718317  0.81654490  0.42239090    -0.53300
C886        C  0.71945479  0.78585643  0.38727244     0.86700
O887        O  0.67766936  0.81758592  0.34868614    -0.55200
O888        O  0.71055573  0.87241387  0.37578413    -0.58500
In889      In  0.14520117  0.57623186  0.70377110     1.36900
C890        C  0.13677478  0.52850862  0.68099225     0.79200
O891        O  0.18719367  0.56641063  0.71720486    -0.59300
O892        O  0.16954937  0.60062902  0.73426629    -0.50200
C893        C  0.14591645  0.61393722  0.66488994     0.71900
O894        O  0.16318572  0.59587153  0.66684367    -0.45000
C895        C  0.11035221  0.56888072  0.74419006     0.76600
O896        O  0.11779571  0.54466716  0.68443894    -0.56900
O897        O  0.13024645  0.55415334  0.74004292    -0.47000
O898        O  0.16003974  0.53794849  0.68643919    -0.53300
C899        C  0.18940559  0.58511765  0.73393018     0.86700
O900        O  0.12765009  0.61256871  0.68252641    -0.55200
O901        O  0.10798189  0.58794833  0.72756891    -0.58500
In902      In  0.13763787  0.71493308  0.58334853     1.36900
C903        C  0.13223729  0.69262684  0.53498143     0.79200
O904        O  0.10034274  0.73987571  0.59047596    -0.59300
O905        O  0.12757751  0.75061842  0.55900132    -0.50200
C906        C  0.13249993  0.67578124  0.62026045     0.71900
O907        O  0.15265294  0.67804853  0.60483311    -0.45000
C908        C  0.17885111  0.74699105  0.59824680     0.76600
O909        O  0.11223890  0.69597383  0.55021670    -0.56900
O910        O  0.15718252  0.74500323  0.61148897    -0.47000
O911        O  0.15502022  0.69776786  0.54575287    -0.53300
C912        C  0.10618291  0.75580747  0.57138122     0.86700
O913        O  0.11488808  0.69340408  0.61670839    -0.55200
O914        O  0.18049920  0.73062812  0.57908935    -0.58500
In915      In  0.26105752  0.84690718  0.58179768     1.36900
C916        C  0.27691095  0.85078685  0.53062177     0.79200
O917        O  0.25058012  0.80566000  0.56670012    -0.59300
O918        O  0.23189030  0.81787352  0.60266280    -0.50200
C919        C  0.30426050  0.84808228  0.61515770     0.71900
O920        O  0.30390765  0.86003976  0.59283407    -0.45000
C921        C  0.22920707  0.88819545  0.59368926     0.76600
O922        O  0.28625679  0.83367531  0.54669591    -0.56900
O923        O  0.22040416  0.86884342  0.57969277    -0.47000
O924        O  0.26022440  0.86648430  0.54094633    -0.53300
C925        C  0.23430063  0.79980380  0.58525638     0.86700
O926        O  0.28253017  0.83544440  0.62051887    -0.55200
O927        O  0.25373117  0.88646557  0.60058430    -0.58500
In928      In  0.26065062  0.58814546  0.84020434     1.36900
C929        C  0.27588991  0.53783592  0.84950608     0.79200
O930        O  0.24358943  0.59992659  0.88051820    -0.59300
O931        O  0.21759635  0.57976815  0.85272347    -0.50200
C932        C  0.30491179  0.62028989  0.83816076     0.71900
O933        O  0.30049044  0.60141551  0.82201993    -0.45000
C934        C  0.23267135  0.60005439  0.79592309     0.76600
O935        O  0.27391617  0.55476495  0.86800612    -0.56900
O936        O  0.23514586  0.61621065  0.81528451    -0.47000
O937        O  0.27162277  0.54701589  0.82629148    -0.53300
C938        C  0.22028977  0.58999188  0.87576670     0.86700
O939        O  0.28689228  0.62268267  0.85579956    -0.55200
O940        O  0.24559806  0.57873097  0.79879972    -0.58500
In941      In  0.39419736  0.83286976  0.71015985     1.36900
C942        C  0.44398143  0.83396014  0.68927661     0.79200
O943        O  0.38616583  0.87262713  0.73106067    -0.59300
O944        O  0.40875095  0.84313021  0.75143587    -0.50200
C945        C  0.35185310  0.83674348  0.67585544     0.71900
O946        O  0.37474141  0.84731634  0.67085155    -0.45000
C947        C  0.38847242  0.78594258  0.73470908     0.76600
O948        O  0.43327115  0.85461590  0.69873050    -0.56900
O949        O  0.37459624  0.80599117  0.74061807    -0.47000
O950        O  0.42830644  0.81374496  0.68807126    -0.53300
C951        C  0.39874794  0.86597771  0.75222469     0.86700
O952        O  0.35071446  0.82500433  0.69816393    -0.55200
O953        O  0.40421117  0.78938491  0.71502166    -0.58500
In954      In  0.39321827  0.71669501  0.84005708     1.36900
C955        C  0.39812354  0.76177190  0.86837884     0.79200
O956        O  0.42713752  0.70013446  0.86543847    -0.59300
O957        O  0.43232900  0.70201442  0.82312107    -0.50200
C958        C  0.35732871  0.67701740  0.84956047     0.71900
O959        O  0.36431606  0.69388864  0.86715101    -0.45000
C960        C  0.37787212  0.74124359  0.79514130     0.76600
O961        O  0.37750325  0.74649203  0.87018770    -0.56900
O962        O  0.39829881  0.72651382  0.79609836    -0.47000
O963        O  0.41614005  0.75366272  0.85277349    -0.53300
C964        C  0.44286397  0.69721621  0.84577782     0.86700
O965        O  0.36967407  0.67961094  0.82753648    -0.55200
O966        O  0.36431271  0.74178421  0.81647614    -0.58500
In967      In  0.39992500  0.84609340  0.27744175     1.36900
C968        C  0.45257709  0.85309297  0.28602189     0.79200
O969        O  0.40323250  0.80326747  0.26601549    -0.59300
O970        O  0.36806271  0.82410548  0.25348776    -0.50200
C971        C  0.37219696  0.84120718  0.32305639     0.71900
O972        O  0.39422760  0.82971397  0.31910882    -0.45000
C973        C  0.39699031  0.88276259  0.23858127     0.76600
O974        O  0.43580102  0.87045195  0.29292411    -0.56900
O975        O  0.40360331  0.85894856  0.23438906    -0.47000
O976        O  0.44212309  0.83189342  0.27656644    -0.53300
C977        C  0.38113136  0.80269590  0.25307501     0.86700
O978        O  0.36500165  0.85663133  0.30426094    -0.55200
O979        O  0.39132288  0.88789151  0.26277683    -0.58500
In980      In  0.27568658  0.82426583  0.40804366     1.36900
C981        C  0.29184007  0.82892079  0.45909069     0.79200
O982        O  0.24934743  0.85917778  0.40096514    -0.59300
O983        O  0.23468839  0.82744412  0.42614785    -0.50200
C984        C  0.31367590  0.83997296  0.37318279     0.71900
O985        O  0.31596075  0.81896730  0.38718998    -0.45000
C986        C  0.24933716  0.78261882  0.38653998     0.76600
O987        O  0.29218892  0.80686731  0.44683191    -0.56900
O988        O  0.24906671  0.80565192  0.37634011    -0.47000
O989        O  0.28665287  0.84874705  0.44437069    -0.53300
C990        C  0.23027641  0.84971158  0.41521141     0.86700
O991        O  0.29286646  0.85314367  0.37796497    -0.55200
O992        O  0.26576771  0.78001365  0.40595498    -0.58500
In993      In  0.14854204  0.70904619  0.40885629     1.36900
C994        C  0.14880629  0.69309986  0.46048262     0.79200
O995        O  0.19387736  0.70792695  0.41205901    -0.59300
O996        O  0.17691469  0.73585778  0.38482618    -0.50200
C997        C  0.13767580  0.67204566  0.37035598     0.71900
O998        O  0.15066667  0.66689742  0.39156081    -0.45000
C999        C  0.11763509  0.75275854  0.41368968     0.76600
O1000       O  0.12725034  0.69259029  0.44658113    -0.56900
O1001       O  0.14314368  0.75345549  0.41525635    -0.47000
O1002       O  0.16954262  0.70038683  0.44771064    -0.53300
C1003       C  0.19804837  0.72708132  0.39603100     0.86700
O1004       O  0.12959075  0.69569173  0.36919779    -0.55200
O1005       O  0.10765491  0.72956975  0.40985694    -0.58500
In1006     In  0.39262424  0.71675662  0.16503360     1.36900
C1007       C  0.44210727  0.69712075  0.16227998     0.79200
O1008       O  0.38267934  0.73863166  0.12606126    -0.59300
O1009       O  0.40874185  0.75734159  0.15479623    -0.50200
C1010       C  0.35180697  0.68076352  0.16086233     0.71900
O1011       O  0.37551796  0.67580156  0.15332507    -0.45000
C1012       C  0.38654821  0.74064709  0.21176904     0.76600
O1013       O  0.42930886  0.70456544  0.14153044    -0.56900
O1014       O  0.37282824  0.74643012  0.19115142    -0.47000
O1015       O  0.42874697  0.69770980  0.18382460    -0.53300
C1016       C  0.39677358  0.75907206  0.13252289     0.86700
O1017       O  0.34898815  0.70403536  0.16955292    -0.55200
O1018       O  0.40198107  0.72102900  0.20913096    -0.58500
In1019     In  0.26632909  0.58190498  0.15475509     1.36900
C1020       C  0.28251576  0.53146942  0.15219374     0.79200
O1021       O  0.25976469  0.57159414  0.19817550    -0.59300
O1022       O  0.23432586  0.60064568  0.18055930    -0.50200
C1023       C  0.30790332  0.61716623  0.15196330     0.71900
O1024       O  0.30856273  0.59437071  0.14142791    -0.45000
C1025       C  0.22891940  0.58429902  0.11568365     0.76600
O1026       O  0.27400840  0.54407103  0.13190940    -0.56900
O1027       O  0.22660661  0.56942368  0.13610245    -0.47000
O1028       O  0.28444512  0.54519189  0.17335599    -0.53300
C1029       C  0.23999093  0.58680952  0.20106458     0.86700
O1030       O  0.28601751  0.62198043  0.16372952    -0.55200
O1031       O  0.25019263  0.59879195  0.11547616    -0.58500
In1032     In  0.14111781  0.57734071  0.28126521     1.36900
C1033       C  0.13716082  0.52789268  0.30144136     0.79200
O1034       O  0.10227007  0.58688641  0.25758228    -0.59300
O1035       O  0.12670459  0.55463032  0.24551373    -0.50200
C1036       C  0.14274911  0.61056688  0.32381406     0.71900
O1037       O  0.15901474  0.59183319  0.32052651    -0.45000
C1038       C  0.18129783  0.59441811  0.24951813     0.76600
O1039       O  0.11732549  0.54354942  0.30118444    -0.56900
O1040       O  0.15925457  0.60650736  0.25130099    -0.47000
O1041       O  0.15922298  0.53829220  0.29334959    -0.53300
C1042       C  0.10602653  0.56824282  0.24087244     0.86700
O1043       O  0.12478369  0.61208602  0.30564582    -0.55200
O1044       O  0.18356745  0.57492729  0.26547867    -0.58500
In1045     In  0.25789555  0.40866068  0.13957342     1.36900
C1046       C  0.27721534  0.45831927  0.13256958     0.79200
O1047       O  0.22075262  0.42405324  0.11872874    -0.59300
O1048       O  0.23083972  0.38378145  0.11166085    -0.50200
C1049       C  0.29999619  0.37573279  0.13376135     0.71900
O1050       O  0.28948846  0.38073284  0.15614184    -0.45000
C1051       C  0.23377967  0.40623387  0.18754895     0.76600
O1052       O  0.26676419  0.44484932  0.11364973    -0.56900
O1053       O  0.23233931  0.38689616  0.17127711    -0.47000
O1054       O  0.28038974  0.44545827  0.15418233    -0.53300
C1055       C  0.21502116  0.40266135  0.10648109     0.86700
O1056       O  0.28927096  0.38780711  0.11427947    -0.55200
O1057       O  0.24755381  0.42600949  0.17935418    -0.58500
In1058     In  0.39039692  0.28406011  0.14635802     1.36900
C1059       C  0.44220668  0.30123046  0.14136123     0.79200
O1060       O  0.39707262  0.26642575  0.18747334    -0.59300
O1061       O  0.36269267  0.25293961  0.16493859    -0.50200
C1062       C  0.35568243  0.32480756  0.14914768     0.71900
O1063       O  0.36668379  0.31444227  0.16942687    -0.45000
C1064       C  0.38693206  0.24616963  0.10893133     0.76600
O1065       O  0.42618214  0.29889815  0.12168487    -0.56900
O1066       O  0.40294614  0.24510499  0.12876518    -0.47000
O1067       O  0.43118112  0.29716519  0.16383763    -0.53300
C1068       C  0.37684759  0.25056304  0.18598722     0.86700
O1069       O  0.36327096  0.31523346  0.12710447    -0.55200
O1070       O  0.37267532  0.26685927  0.10801626    -0.58500
In1071     In  0.39364527  0.15573919  0.26959656     1.36900
C1072       C  0.44241182  0.15651651  0.29305084     0.79200
O1073       O  0.41596049  0.14227113  0.23356841    -0.59300
O1074       O  0.38252867  0.11793659  0.24597182    -0.50200
C1075       C  0.35290591  0.14595782  0.30407230     0.71900
O1076       O  0.37736169  0.14253676  0.31038985    -0.45000
C1077       C  0.38618093  0.20248774  0.24465008     0.76600
O1078       O  0.43140823  0.13523376  0.28412407    -0.56900
O1079       O  0.37634200  0.18067526  0.23608491    -0.47000
O1080       O  0.42759135  0.17677304  0.29188927    -0.53300
C1081       C  0.40140219  0.12177966  0.22923061     0.86700
O1082       O  0.34939787  0.15375947  0.28028626    -0.55200
O1083       O  0.39848052  0.20072028  0.26683424    -0.58500
In1084     In  0.26777724  0.14571408  0.40079168     1.36900
C1085       C  0.27462289  0.14924105  0.45412983     0.79200
O1086       O  0.26830278  0.19047261  0.40427646    -0.59300
O1087       O  0.24053041  0.17202834  0.37679319    -0.50200
C1088       C  0.30971574  0.13816220  0.36759003     0.71900
O1089       O  0.31218543  0.13727838  0.39277824    -0.45000
C1090       C  0.22481980  0.11216597  0.39915604     0.76600
O1091       O  0.27077536  0.12705439  0.44249674    -0.56900
O1092       O  0.22330757  0.13721342  0.39900657    -0.47000
O1093       O  0.27691585  0.16892758  0.43842982    -0.53300
C1094       C  0.24863093  0.19325108  0.38824583     0.86700
O1095       O  0.28578010  0.14129279  0.35957499    -0.55200
O1096       O  0.24877641  0.10357687  0.39946030    -0.58500
In1097     In  0.15096240  0.40346469  0.28507580     1.36900
C1098       C  0.15337682  0.45376951  0.30375638     0.79200
O1099       O  0.18649402  0.41397154  0.25905927    -0.59300
O1100       O  0.17032854  0.37447830  0.25620433    -0.50200
C1101       C  0.15382440  0.36628133  0.32409483     0.71900
O1102       O  0.13303905  0.36936014  0.30971114    -0.45000
C1103       C  0.10843064  0.40394374  0.25205541     0.76600
O1104       O  0.13120667  0.44139212  0.29978103    -0.56900
O1105       O  0.13199392  0.41113825  0.24511990    -0.47000
O1106       O  0.17394424  0.43962738  0.30091431    -0.53300
C1107       C  0.18716609  0.39167754  0.24736721     0.86700
O1108       O  0.17289623  0.38266787  0.31912485    -0.55200
O1109       O  0.10627571  0.39676671  0.27634089    -0.58500
In1110     In  0.14652654  0.26232951  0.40080703     1.36900
C1111       C  0.14646494  0.28316254  0.45009139     0.79200
O1112       O  0.11253867  0.23395602  0.38706522    -0.59300
O1113       O  0.13363137  0.22510668  0.42320126    -0.50200
C1114       C  0.13926455  0.30477234  0.36879277     0.71900
O1115       O  0.12003752  0.28907565  0.37537534    -0.45000
C1116       C  0.18876596  0.23710100  0.38105609     0.76600
O1117       O  0.12500968  0.28020032  0.43629003    -0.56900
O1118       O  0.16626162  0.23775237  0.36896113    -0.47000
O1119       O  0.16779898  0.27652570  0.43825313    -0.53300
C1120       C  0.11547706  0.21801346  0.40663004     0.86700
O1121       O  0.16188612  0.29891405  0.37881721    -0.55200
O1122       O  0.19006602  0.25054219  0.40245801    -0.58500
In1123     In  0.26439992  0.41204277  0.83592147     1.36900
C1124       C  0.28101990  0.46314892  0.83701508     0.79200
O1125       O  0.25744779  0.42327724  0.79296585    -0.59300
O1126       O  0.23479253  0.39011432  0.80837548    -0.50200
C1127       C  0.30612264  0.37892233  0.84194626     0.71900
O1128       O  0.30115034  0.39682577  0.85887077    -0.45000
C1129       C  0.22372519  0.40521015  0.87076476     0.76600
O1130       O  0.26996560  0.45188942  0.85702011    -0.56900
O1131       O  0.22354683  0.42256116  0.85230092    -0.47000
O1132       O  0.28574942  0.44773820  0.81776563    -0.53300
C1133       C  0.23943200  0.40560485  0.78871500     0.86700
O1134       O  0.28999097  0.37820704  0.82223248    -0.55200
O1135       O  0.24464495  0.39112577  0.87133703    -0.58500
In1136     In  0.39096957  0.28326019  0.82464910     1.36900
C1137       C  0.44052001  0.30514404  0.82278026     0.79200
O1138       O  0.37664060  0.25772063  0.86038845    -0.59300
O1139       O  0.41541792  0.25143653  0.84344188    -0.50200
C1140       C  0.35658716  0.32404027  0.82524661     0.71900
O1141       O  0.36623062  0.31441808  0.84670538    -0.45000
C1142       C  0.37610806  0.25008112  0.78515251     0.76600
O1143       O  0.42724740  0.29840079  0.80208004    -0.56900
O1144       O  0.36289990  0.25176186  0.80672220    -0.47000
O1145       O  0.42758121  0.30292074  0.84454818    -0.53300
C1146       C  0.39820882  0.24440231  0.86077132     0.86700
O1147       O  0.36479104  0.31315438  0.80418736    -0.55200
O1148       O  0.39602756  0.26620930  0.78335113    -0.58500
In1149     In  0.38692407  0.15554891  0.70071918     1.36900
C1150       C  0.43875550  0.15014004  0.68677268     0.79200
O1151       O  0.40065100  0.19841359  0.70745800    -0.59300
O1152       O  0.36788000  0.18317788  0.73063697    -0.50200
C1153       C  0.35162477  0.14343480  0.66097592     0.71900
O1154       O  0.36207511  0.12615097  0.67586345    -0.45000
C1155       C  0.38041223  0.12631611  0.74484099     0.76600
O1156       O  0.42396259  0.13073868  0.69440789    -0.56900
O1157       O  0.36238953  0.14173896  0.73625200    -0.47000
O1158       O  0.42649841  0.17192014  0.68420231    -0.53300
C1159       C  0.38408309  0.20245778  0.72613020     0.86700
O1160       O  0.36014042  0.16689927  0.66542670    -0.55200
O1161       O  0.40149995  0.12559955  0.73066007    -0.58500
In1162     In  0.14623075  0.40452444  0.70015924     1.36900
C1163       C  0.14948488  0.45417622  0.67961638     0.79200
O1164       O  0.10575819  0.38885916  0.71561847    -0.59300
O1165       O  0.12634705  0.41979672  0.73716007    -0.50200
C1166       C  0.14672688  0.36902398  0.65992810     0.71900
O1167       O  0.16764310  0.37598374  0.67291968    -0.45000
C1168       C  0.18408121  0.39249737  0.73639318     0.76600
O1169       O  0.12715840  0.44288545  0.68532069    -0.56900
O1170       O  0.16364000  0.37749594  0.73211217    -0.47000
O1171       O  0.16965350  0.43940050  0.68227900    -0.53300
C1172       C  0.10597447  0.40416663  0.73575844     0.86700
O1173       O  0.12550746  0.38061838  0.66704388    -0.55200
O1174       O  0.18581086  0.41269620  0.72116175    -0.58500
In1175     In  0.12571778  0.27531306  0.57287433     1.36900
C1176       C  0.12442849  0.29254038  0.52228158     0.79200
O1177       O  0.15486408  0.25010980  0.55053647    -0.59300
O1178       O  0.15719481  0.24925451  0.59312905    -0.50200
C1179       C  0.12539517  0.31680207  0.60701916     0.71900
O1180       O  0.14690671  0.30765121  0.59753131    -0.45000
C1181       C  0.08761761  0.23779143  0.58017195     0.76600
O1182       O  0.10318217  0.28684801  0.53526832    -0.56900
O1183       O  0.10718152  0.24078043  0.59638061    -0.47000
O1184       O  0.14598454  0.29276809  0.53618775    -0.53300
C1185       C  0.16598461  0.24047308  0.57108793     0.86700
O1186       O  0.10414259  0.30526994  0.59856745    -0.55200
O1187       O  0.08625725  0.25548610  0.56215416    -0.58500
In1188     In  0.24883652  0.14344619  0.58019713     1.36900
C1189       C  0.21049404  0.10593293  0.59063711     0.79200
O1190       O  0.22790805  0.17375376  0.60574621    -0.59300
O1191       O  0.22180585  0.17523476  0.56346917    -0.50200
C1192       C  0.29460285  0.15004118  0.60890312     0.71900
O1193       O  0.28145454  0.12811664  0.60852985    -0.45000
C1194       C  0.26538354  0.13688650  0.52969577     0.76600
O1195       O  0.21690435  0.12412042  0.60704317    -0.56900
O1196       O  0.25794639  0.15916749  0.53866797    -0.47000
O1197       O  0.22507459  0.10562527  0.56996150    -0.53300
C1198       C  0.21647146  0.18504882  0.58616365     0.86700
O1199       O  0.28481236  0.16790987  0.59420182    -0.55200
O1200       O  0.26540895  0.11821798  0.54686847    -0.68100
C1201       C  0.19788446  0.20750714  0.58981574    -0.14800
C1202       C  0.18682431  0.21995568  0.56861918    -0.30000
H1203       H  0.19259217  0.21328955  0.61013778     0.14200
H1204       H  0.19227980  0.21401804  0.54837807     0.14800
C1205       C  0.14741235  0.34861779  0.63856012    -0.14800
C1206       C  0.12474938  0.33876780  0.62678021    -0.30000
H1207       H  0.16701737  0.34072101  0.63320519     0.14200
H1208       H  0.10507559  0.34615008  0.63263128     0.14800
C1209       C  0.33026024  0.13658879  0.64109933    -0.14800
C1210       C  0.31880511  0.15539966  0.62575727    -0.30000
H1211       H  0.32269655  0.11602849  0.64028701     0.14200
H1212       H  0.32658548  0.17589240  0.62651916     0.14800
C1213       C  0.36977546  0.22960323  0.76462172    -0.14800
C1214       C  0.38515488  0.22696801  0.74256295    -0.30000
H1215       H  0.35403199  0.21474988  0.76916561     0.14200
H1216       H  0.40106480  0.24170023  0.73819307     0.14800
C1217       C  0.22420801  0.40483755  0.76317900    -0.14800
C1218       C  0.20327152  0.38783097  0.75871195    -0.30000
H1219       H  0.22873114  0.42063405  0.74868772     0.14200
H1220       H  0.19854883  0.37200917  0.77309950     0.14800
C1221       C  0.32858322  0.35993920  0.84499043    -0.14800
C1222       C  0.33646126  0.34541948  0.82385751    -0.30000
H1223       H  0.33827756  0.35756978  0.86451797     0.14200
H1224       H  0.32721858  0.34891084  0.80427088     0.14800
C1225       C  0.14694890  0.29166287  0.47849904    -0.14800
C1226       C  0.12415565  0.29501147  0.49267347    -0.30000
H1227       H  0.16641369  0.29131621  0.48887901     0.14200
H1228       H  0.10458909  0.29440625  0.48247674     0.14800
C1229       C  0.15624564  0.34485780  0.34449662    -0.14800
C1230       C  0.13565614  0.32770454  0.35031930    -0.30000
H1231       H  0.17582125  0.34263038  0.35433502     0.14200
H1232       H  0.11596438  0.33005195  0.34075756     0.14800
C1233       C  0.27446653  0.15287637  0.48361388    -0.14800
C1234       C  0.27190116  0.13242195  0.50106606    -0.30000
H1235       H  0.27418319  0.17329418  0.49102596     0.14200
H1236       H  0.27268357  0.11194713  0.49391123     0.14800
C1237       C  0.23400353  0.21847878  0.38617032    -0.14800
C1238       C  0.21061209  0.21963332  0.37233413    -0.30000
H1239       H  0.23933553  0.23405487  0.40057610     0.14200
H1240       H  0.20532712  0.20417586  0.35778650     0.14800
C1241       C  0.32992806  0.14216003  0.32267391    -0.14800
C1242       C  0.33305264  0.13711194  0.34909815    -0.30000
H1243       H  0.30975576  0.14550977  0.31454991     0.14200
H1244       H  0.35319105  0.13437809  0.35754198     0.14800
C1245       C  0.37130075  0.22931327  0.20594830    -0.14800
C1246       C  0.38545797  0.22759237  0.22902834    -0.30000
H1247       H  0.35726378  0.21324613  0.20020334     0.14200
H1248       H  0.39906203  0.24389331  0.23509132     0.14800
C1249       C  0.22001673  0.40707817  0.21374778    -0.14800
C1250       C  0.20460229  0.38699892  0.22381566    -0.30000
H1251       H  0.22142121  0.42598462  0.22444953     0.14200
H1252       H  0.20287815  0.36800449  0.21334117     0.14800
C1253       C  0.32252961  0.35688090  0.13040613    -0.14800
C1254       C  0.33497497  0.34565677  0.15168630    -0.30000
H1255       H  0.32850440  0.35166681  0.11011946     0.14200
H1256       H  0.32906755  0.35118690  0.17191152     0.14800
C1257       C  0.13417863  0.49902631  0.30797592    -0.14800
C1258       C  0.15576408  0.48296485  0.30829888    -0.30000
H1259       H  0.11379230  0.49036871  0.30869582     0.14200
H1260       H  0.17607969  0.49182319  0.30770779     0.14800
C1261       C  0.28757634  0.50249804  0.15206428    -0.14800
C1262       C  0.28235680  0.48740440  0.13023498    -0.30000
H1263       H  0.29193018  0.49297767  0.17126560     0.14200
H1264       H  0.27743456  0.49693259  0.11117897     0.14800
C1265       C  0.22391578  0.58654970  0.22594614    -0.14800
C1266       C  0.20157441  0.60113294  0.22873884    -0.30000
H1267       H  0.22892262  0.57167546  0.24109392     0.14200
H1268       H  0.19641037  0.61597500  0.21361978     0.14800
C1269       C  0.32896073  0.66129475  0.16043804    -0.14800
C1270       C  0.33099302  0.63641302  0.15075177    -0.30000
H1271       H  0.30986117  0.66764793  0.16886707     0.14200
H1272       H  0.34989947  0.62999761  0.14197720     0.14800
C1273       C  0.13259528  0.65253821  0.34830598    -0.14800
C1274       C  0.14542763  0.62907851  0.34702777    -0.30000
H1275       H  0.11914195  0.65830696  0.33198558     0.14200
H1276       H  0.15975958  0.62390674  0.36281926     0.14800
C1277       C  0.22903237  0.76202929  0.37862965    -0.14800
C1278       C  0.22513569  0.73987991  0.39348834    -0.30000
H1279       H  0.21354037  0.76792742  0.36425342     0.14200
H1280       H  0.24050989  0.73404049  0.40801290     0.14800
C1281       C  0.37243305  0.77981894  0.23657989    -0.14800
C1282       C  0.38693955  0.75743956  0.23588576    -0.30000
H1283       H  0.35651930  0.78313392  0.22177384     0.14200
H1284       H  0.40272835  0.75402922  0.25079539     0.14800
C1285       C  0.35576413  0.83558791  0.34717754    -0.14800
C1286       C  0.33266512  0.84832956  0.35182802    -0.30000
H1287       H  0.36200262  0.81953958  0.36051351     0.14200
H1288       H  0.32669443  0.86464755  0.33869378     0.14800
C1289       C  0.38829650  0.76138763  0.75113403    -0.14800
C1290       C  0.37156482  0.75871889  0.77220269    -0.30000
H1291       H  0.40466209  0.74745426  0.74836036     0.14200
H1292       H  0.35524327  0.77274249  0.77481954     0.14800
C1293       C  0.28050572  0.50920951  0.85478541    -0.14800
C1294       C  0.28554172  0.49229658  0.83461551    -0.30000
H1295       H  0.27674980  0.50154389  0.87493950     0.14200
H1296       H  0.28990884  0.50020046  0.81466012     0.14800
C1297       C  0.32884277  0.63835973  0.83559518    -0.14800
C1298       C  0.33552441  0.65681504  0.85418026    -0.30000
H1299       H  0.34083129  0.63691111  0.81740149     0.14200
H1300       H  0.32393470  0.65796539  0.87265115     0.14800
C1301       C  0.28343064  0.85172897  0.50168800    -0.14800
C1302       C  0.29420103  0.83090439  0.48868688    -0.30000
H1303       H  0.27563676  0.86846903  0.49018971     0.14200
H1304       H  0.30045751  0.81336521  0.49991779     0.14800
C1305       C  0.32832154  0.84892341  0.63321499    -0.14800
C1306       C  0.32802550  0.83721748  0.65759152    -0.30000
H1307       H  0.34660386  0.85923858  0.62625814     0.14200
H1308       H  0.30960705  0.82704638  0.66443302     0.14800
C1309       C  0.12898937  0.68648359  0.50598959    -0.14800
C1310       C  0.15059121  0.68779600  0.48968139    -0.30000
H1311       H  0.10863239  0.68560873  0.49749080     0.14200
H1312       H  0.17078979  0.68934679  0.49852174     0.14800
C1313       C  0.19922865  0.76851636  0.60330250    -0.14800
C1314       C  0.21863726  0.77431500  0.58521789    -0.30000
H1315       H  0.19596694  0.78194347  0.62005650     0.14200
H1316       H  0.22135874  0.76116748  0.56812462     0.14800
C1317       C  0.13189699  0.49994530  0.67449267    -0.14800
C1318       C  0.15267648  0.48296978  0.67327932    -0.30000
H1319       H  0.11118666  0.49215446  0.67558402     0.14200
H1320       H  0.17333256  0.49094439  0.67227187     0.14800
C1321       C  0.14775569  0.63490803  0.64375442    -0.14800
C1322       C  0.12960962  0.65449438  0.64101967    -0.30000
H1323       H  0.16493696  0.63433091  0.63019048     0.14200
H1324       H  0.11227927  0.65505818  0.65438847     0.14800
C1325       C  0.21257989  0.58676084  0.75272803    -0.14800
C1326       C  0.21434274  0.60460036  0.77282189    -0.30000
H1327       H  0.22699694  0.57063342  0.75186689     0.14200
H1328       H  0.20011637  0.62085979  0.77389117     0.14800
C1329       C  0.75444156  0.75618520  0.37043148    -0.14800
C1330       C  0.73549592  0.76144657  0.38879408    -0.30000
H1331       H  0.75587695  0.76812069  0.35214672     0.14200
H1332       H  0.73360233  0.74910668  0.40676901     0.14800
C1333       C  0.49848677  0.83951981  0.27638610    -0.14800
C1334       C  0.48212135  0.85788037  0.28669964    -0.30000
H1335       H  0.49019114  0.82006608  0.27051054     0.14200
H1336       H  0.49000791  0.87758868  0.29217514     0.14800
C1337       C  0.62557212  0.85683967  0.31705060    -0.14800
C1338       C  0.64265099  0.83671269  0.32189555    -0.30000
H1339       H  0.62310913  0.87244539  0.33192927     0.14200
H1340       H  0.64478585  0.82108099  0.30696736     0.14800
C1341       C  0.81796890  0.62288637  0.33651282    -0.14800
C1342       C  0.82449324  0.64863895  0.33179285    -0.30000
H1343       H  0.81153842  0.61631657  0.35638422     0.14200
H1344       H  0.83132256  0.65491101  0.31194333     0.14800
C1345       C  0.48674794  0.69353046  0.14045551    -0.14800
C1346       C  0.47115112  0.69068255  0.16238743    -0.30000
H1347       H  0.47747743  0.69686166  0.12086571     0.14200
H1348       H  0.48061940  0.68736805  0.18189403     0.14800
C1349       C  0.58342005  0.76554947  0.20949777    -0.14800
C1350       C  0.59522179  0.78946925  0.20398111    -0.30000
H1351       H  0.57174729  0.76288648  0.22782889     0.14200
H1352       H  0.60595078  0.79258937  0.18515484     0.14800
C1353       C  0.64564711  0.65000473  0.14005688    -0.14800
C1354       C  0.62047821  0.64798692  0.15005524    -0.30000
H1355       H  0.65273461  0.66874823  0.13112947     0.14200
H1356       H  0.61340638  0.62944010  0.15938336     0.14800
C1357       C  0.74875139  0.59709175  0.21061309    -0.14800
C1358       C  0.75079358  0.57721384  0.22873329    -0.30000
H1359       H  0.76347569  0.61358332  0.21073950     0.14200
H1360       H  0.73627543  0.56054681  0.22852403     0.14800
C1361       C  0.67635049  0.85371251  0.48401197    -0.14800
C1362       C  0.66722355  0.83438600  0.46729921    -0.30000
H1363       H  0.68539569  0.87193977  0.47570899     0.14200
H1364       H  0.65821332  0.81607740  0.47544189     0.14800
C1365       C  0.49074175  0.85280980  0.68648559    -0.14800
C1366       C  0.47313721  0.83223530  0.68273341    -0.30000
H1367       H  0.48317958  0.87258187  0.69082157     0.14200
H1368       H  0.48080136  0.81250733  0.67836605     0.14800
C1369       C  0.63304859  0.84065310  0.64669732    -0.14800
C1370       C  0.62919472  0.84506093  0.62025263    -0.30000
H1371       H  0.65326929  0.83633399  0.65414610     0.14200
H1372       H  0.60904624  0.84945283  0.61267626     0.14800
C1373       C  0.79849500  0.68331266  0.48294288    -0.14800
C1374       C  0.82106036  0.68571324  0.46794681    -0.30000
H1375       H  0.77864016  0.68240765  0.47333448     0.14200
H1376       H  0.84078863  0.68703843  0.47779626     0.14800
C1377       C  0.74892534  0.76057533  0.58128669    -0.14800
C1378       C  0.72726805  0.76575660  0.56575709    -0.30000
H1379       H  0.75536589  0.77483549  0.59661614     0.14200
H1380       H  0.72115250  0.75183003  0.55000969     0.14800
C1381       C  0.79238001  0.63835814  0.64113373    -0.14800
C1382       C  0.80318460  0.63649059  0.61654816    -0.30000
H1383       H  0.78101142  0.65591221  0.64655756     0.14200
H1384       H  0.81501611  0.61921201  0.61124302     0.14800
C1385       C  0.74821966  0.60309510  0.78085870    -0.14800
C1386       C  0.74632361  0.58605552  0.76001812    -0.30000
H1387       H  0.76348288  0.61909747  0.78097480     0.14200
H1388       H  0.73053950  0.57054086  0.75975848     0.14800
C1389       C  0.48889676  0.69112598  0.82828013    -0.14800
C1390       C  0.47200004  0.69165350  0.84939211    -0.30000
H1391       H  0.48058099  0.69050190  0.80798047     0.14200
H1392       H  0.48023139  0.69241269  0.86971413     0.14800
C1393       C  0.58760523  0.77076463  0.77225551    -0.14800
C1394       C  0.57369903  0.77150015  0.74892054    -0.30000
H1395       H  0.60241274  0.78649853  0.77696077     0.14200
H1396       H  0.55903588  0.75570192  0.74401344     0.14800
C1397       C  0.62498548  0.65718607  0.83406512    -0.14800
C1398       C  0.63540287  0.64534059  0.85607120    -0.30000
H1399       H  0.63299378  0.65240847  0.81437259     0.14200
H1400       H  0.62805208  0.65030201  0.87595719     0.14800
C1401       C  0.83129556  0.48938982  0.68063861    -0.14800
C1402       C  0.80788032  0.50268108  0.67921081    -0.30000
H1403       H  0.85044323  0.50047501  0.68219256     0.14200
H1404       H  0.78867471  0.49167834  0.67784877     0.14800
C1405       C  0.67599408  0.49499453  0.84989740    -0.14800
C1406       C  0.67169601  0.51500247  0.83239532    -0.30000
H1407       H  0.68001183  0.49952779  0.87093544     0.14200
H1408       H  0.66788732  0.51046715  0.81132338     0.14800
C1409       C  0.74531800  0.41326096  0.75380999    -0.14800
C1410       C  0.76662348  0.39684167  0.75343652    -0.30000
H1411       H  0.74308816  0.42839538  0.73824249     0.14200
H1412       H  0.76906194  0.38209834  0.76935229     0.14800
C1413       C  0.81767812  0.33900797  0.63468537    -0.14800
C1414       C  0.83761377  0.35713224  0.63950998    -0.30000
H1415       H  0.79954592  0.33888956  0.64702192     0.14200
H1416       H  0.85575250  0.35756534  0.62719713     0.14800
C1417       C  0.48606377  0.31214069  0.84285222    -0.14800
C1418       C  0.46958451  0.31231319  0.82119430    -0.30000
H1419       H  0.47762462  0.31076417  0.86296636     0.14200
H1420       H  0.47831544  0.31326346  0.80117313     0.14800
C1421       C  0.62023910  0.36063171  0.83029247    -0.14800
C1422       C  0.64708070  0.35897012  0.83477650    -0.30000
H1423       H  0.61175076  0.37965975  0.82432927     0.14200
H1424       H  0.65538217  0.34010682  0.84151048     0.14800
C1425       C  0.46840660  0.14776522  0.68381880    -0.14800
C1426       C  0.48467234  0.16950214  0.68105538    -0.30000
H1427       H  0.47717202  0.12845503  0.68822094     0.14200
H1428       H  0.47580718  0.18892669  0.67748053     0.14800
C1429       C  0.58847945  0.23261521  0.75801495    -0.14800
C1430       C  0.57301344  0.25414691  0.76113605    -0.30000
H1431       H  0.60425983  0.22832766  0.77267711     0.14200
H1432       H  0.55711860  0.25823341  0.74652439     0.14800
C1433       C  0.64156712  0.15107874  0.64752403    -0.14800
C1434       C  0.61705746  0.16200575  0.64487764    -0.30000
H1435       H  0.64842659  0.14402799  0.66707620     0.14200
H1436       H  0.61064588  0.16986776  0.62548914     0.14800
C1437       C  0.76361929  0.22027490  0.59797047    -0.14800
C1438       C  0.74062234  0.21705873  0.58366567    -0.30000
H1439       H  0.76901764  0.20573550  0.61330185     0.14200
H1440       H  0.73519258  0.23183419  0.56856833     0.14800
C1441       C  0.48913255  0.30632470  0.15882955    -0.14800
C1442       C  0.47179100  0.30564407  0.13782610    -0.30000
H1443       H  0.48123677  0.30730971  0.17915950     0.14200
H1444       H  0.47967742  0.30469691  0.11749188     0.14800
C1445       C  0.48830512  0.13833813  0.29850188    -0.14800
C1446       C  0.47114794  0.15861650  0.30170866    -0.30000
H1447       H  0.48032341  0.11866640  0.29299827     0.14200
H1448       H  0.47917696  0.17845022  0.30652054     0.14800
C1449       C  0.56827581  0.22326843  0.23369131    -0.14800
C1450       C  0.58504636  0.22726625  0.21275360    -0.30000
H1451       H  0.55140607  0.23655642  0.23670198     0.14200
H1452       H  0.60193341  0.21401370  0.20970600     0.14800
C1453       C  0.66710336  0.13572923  0.50578232    -0.14800
C1454       C  0.66935690  0.15589193  0.48793153    -0.30000
H1455       H  0.66515553  0.11519714  0.49882477     0.14200
H1456       H  0.67173135  0.17633745  0.49507876     0.14800
C1457       C  0.63463150  0.13524904  0.35504724    -0.14800
C1458       C  0.62832990  0.15581590  0.33874441    -0.30000
H1459       H  0.62336901  0.11638912  0.35362025     0.14200
H1460       H  0.63976588  0.17457371  0.34037478     0.14800
C1461       C  0.67236084  0.49448739  0.15517206    -0.14800
C1462       C  0.67387321  0.51073188  0.13360228    -0.30000
H1463       H  0.67183389  0.50305473  0.17522285     0.14200
H1464       H  0.67493238  0.50229034  0.11353192     0.14800
C1465       C  0.63466781  0.36150016  0.13854387    -0.14800
C1466       C  0.62537379  0.34628446  0.15905977    -0.30000
H1467       H  0.62675346  0.35840734  0.11832200     0.14200
H1468       H  0.63420663  0.34898995  0.17898091     0.14800
C1469       C  0.81683346  0.47151743  0.29143899    -0.14800
C1470       C  0.83666568  0.49023298  0.29296934    -0.30000
H1471       H  0.79574142  0.47743935  0.29121530     0.14200
H1472       H  0.85779535  0.48445941  0.29305793     0.14800
C1473       C  0.76720435  0.38029064  0.21445516    -0.14800
C1474       C  0.74442343  0.39435901  0.21678711    -0.30000
H1475       H  0.77169772  0.37028801  0.19568240     0.14200
H1476       H  0.74045272  0.40491499  0.23538222     0.14800
C1477       C  0.83372479  0.30007972  0.48206604    -0.14800
C1478       C  0.81247882  0.30198995  0.49871800    -0.30000
H1479       H  0.85414399  0.29924567  0.49035719     0.14200
H1480       H  0.79199056  0.30198775  0.49051357     0.14800
C1481       C  0.75441450  0.22499560  0.40403982    -0.14800
C1482       C  0.75308561  0.20171389  0.39068908    -0.30000
H1483       H  0.73812165  0.23052384  0.41741662     0.14200
H1484       H  0.76944221  0.19617800  0.37738877     0.14800
C1485       C  0.81918671  0.32396738  0.33926994    -0.14800
C1486       C  0.83539553  0.34560186  0.33610584    -0.30000
H1487       H  0.80484977  0.31831880  0.32348049     0.14200
H1488       H  0.85005155  0.35112862  0.35164192     0.14800
C1489       C  0.06980731  0.21382170  0.58019582    -0.14800
C1490       C  0.05945064  0.20516233  0.55665067    -0.30000
H1491       H  0.06968345  0.20075396  0.59771490     0.14200
H1492       H  0.06134110  0.21807563  0.53905613     0.14800
C1493       C  0.87657685  0.19989729  0.56185970    -0.14800
C1494       C  0.88171684  0.22272031  0.57539988    -0.30000
H1495       H  0.85698574  0.19729387  0.55195294     0.14200
H1496       H  0.90077671  0.22609749  0.58599353     0.14800
C1497       C  0.96517839  0.14956624  0.57106479    -0.14800
C1498       C  0.98446210  0.13467114  0.55931142    -0.30000
H1499       H  0.97132054  0.16529591  0.58490230     0.14200
H1500       H  0.97805516  0.11842762  0.54611481     0.14800
C1501       C  0.88304158  0.19377993  0.40985995    -0.14800
C1502       C  0.88508338  0.21748428  0.39708638    -0.30000
H1503       H  0.86524718  0.18947605  0.42206389     0.14200
H1504       H  0.90222728  0.22235557  0.38428127     0.14800
C1505       C  0.92182671  0.14048302  0.47292231    -0.14800
C1506       C  0.90507315  0.15349137  0.48916991    -0.30000
H1507       H  0.93811905  0.12887834  0.48161639     0.14200
H1508       H  0.88836318  0.16484122  0.48098704     0.14800
C1509       C  0.08048444  0.18409303  0.39283092    -0.14800
C1510       C  0.09937916  0.19296488  0.41048551    -0.30000
H1511       H  0.07625571  0.19592828  0.37495629     0.14200
H1512       H  0.10290222  0.18196309  0.42899580     0.14800
C1513       C  0.99127520  0.13118665  0.39029280    -0.14800
C1514       C  0.97474395  0.15244320  0.39014550    -0.30000
H1515       H  0.98203158  0.11142479  0.39288824     0.14200
H1516       H  0.98381208  0.17242590  0.39024315     0.14800
C1517       C  0.05458386  0.14266654  0.46837052    -0.14800
C1518       C  0.03777493  0.13441770  0.48827761    -0.30000
H1519       H  0.07250294  0.15478666  0.47315381     0.14200
H1520       H  0.02133423  0.12022212  0.48409586     0.14800
C1521       C  0.17968823  0.06910923  0.57630141    -0.14800
C1522       C  0.18617984  0.08844884  0.59412172    -0.30000
H1523       H  0.19480025  0.06304934  0.56184435     0.14200
H1524       H  0.17175204  0.09396666  0.60944252     0.14800
C1525       C  0.07994929  0.08349356  0.56297109    -0.14800
C1526       C  0.08343173  0.10965018  0.55727640    -0.30000
H1527       H  0.06018048  0.07559887  0.56894017     0.14200
H1528       H  0.10374654  0.11697845  0.55231648     0.14800
C1529       C  0.18825481  0.91887551  0.59568092    -0.14800
C1530       C  0.21311246  0.91089009  0.60321739    -0.30000
H1531       H  0.18083903  0.93649089  0.60580828     0.14200
H1532       H  0.22302725  0.92287473  0.61877166     0.14800
C1533       C  0.13954563  0.97360000  0.56467164    -0.14800
C1534       C  0.11815250  0.98968513  0.56723734    -0.30000
H1535       H  0.15956428  0.98239771  0.56198293     0.14200
H1536       H  0.09808032  0.98083877  0.57017968     0.14800
C1537       C  0.19873997  0.88526594  0.40482111    -0.14800
C1538       C  0.20476688  0.86340306  0.41910491    -0.30000
H1539       H  0.21302186  0.89287540  0.38990118     0.14200
H1540       H  0.19134318  0.85537889  0.43441647     0.14800
C1541       C  0.14880119  0.90452642  0.47871552    -0.14800
C1542       C  0.15633024  0.92027221  0.49939673    -0.30000
H1543       H  0.14133820  0.88431088  0.48258140     0.14200
H1544       H  0.16586889  0.93966731  0.49550659     0.14800
C1545       C  0.19988255  0.09537350  0.40027836    -0.14800
C1546       C  0.19923437  0.06863881  0.40326330    -0.30000
H1547       H  0.18096115  0.10611381  0.40029076     0.14200
H1548       H  0.21777947  0.05738460  0.40186907     0.14800
C1549       C  0.10802976  0.08801135  0.40600373    -0.14800
C1550       C  0.08141648  0.08681312  0.40023864    -0.30000
H1551       H  0.11770774  0.10727073  0.40994677     0.14200
H1552       H  0.07170037  0.06760692  0.39592295     0.14800
C1553       C  0.13117956  0.98847921  0.40942782    -0.14800
C1554       C  0.14786090  0.96982855  0.40001262    -0.30000
H1555       H  0.11291463  0.98163729  0.41976767     0.14200
H1556       H  0.16562663  0.97621522  0.38883216     0.14800
C1557       C  0.14377275  0.05816475  0.47900701    -0.14800
C1558       C  0.14646555  0.04192381  0.50039450    -0.30000
H1559       H  0.13689253  0.07848349  0.48158547     0.14200
H1560       H  0.15559481  0.02249065  0.49810384     0.14800
C1561       C  0.74993537  0.08617723  0.57796011    -0.14800
C1562       C  0.77409565  0.09050496  0.56606194    -0.30000
H1563       H  0.74382730  0.06643358  0.58505144     0.14200
H1564       H  0.77924747  0.11044364  0.55865615     0.14800
C1565       C  0.86756532  0.11085776  0.56028311    -0.14800
C1566       C  0.86862600  0.08425137  0.56355924    -0.30000
H1567       H  0.84802050  0.12002417  0.55750758     0.14200
H1568       H  0.88799310  0.07482110  0.56702022     0.14800
C1569       C  0.78071332  0.89002329  0.56157974    -0.14800
C1570       C  0.75591905  0.89605975  0.57066574    -0.30000
H1571       H  0.78422492  0.86976180  0.55478313     0.14200
H1572       H  0.75146215  0.91628479  0.57682130     0.14800
C1573       C  0.83372804  0.98039185  0.56508040    -0.14800
C1574       C  0.81319677  0.99708145  0.56953993    -0.30000
H1575       H  0.85337647  0.98923015  0.55995932     0.14200
H1576       H  0.79282466  0.98892949  0.57231013     0.14800
C1577       C  0.77932608  0.88737373  0.39764955    -0.14800
C1578       C  0.75510854  0.89018790  0.38532117    -0.30000
H1579       H  0.78358348  0.86876464  0.40806639     0.14200
H1580       H  0.74992483  0.90891089  0.37571025     0.14800
C1581       C  0.81328573  0.93530993  0.46909616    -0.14800
C1582       C  0.82423088  0.91807658  0.48666490    -0.30000
H1583       H  0.80376676  0.95309577  0.47682669     0.14200
H1584       H  0.83329649  0.89980116  0.47965584     0.14800
C1585       C  0.76941563  0.07383611  0.40639963    -0.14800
C1586       C  0.76020854  0.09067671  0.42506631    -0.30000
H1587       H  0.75771567  0.07061269  0.38804514     0.14200
H1588       H  0.77113142  0.09333041  0.44391419     0.14800
C1589       C  0.86020869  0.09824836  0.40790562    -0.14800
C1590       C  0.88566067  0.10021661  0.39837307    -0.30000
H1591       H  0.85145085  0.11502687  0.41814694     0.14200
H1592       H  0.89431116  0.08341347  0.38797096     0.14800
C1593       C  0.81784551  0.98107544  0.38114610    -0.14800
C1594       C  0.83680630  0.00069057  0.38514379    -0.30000
H1595       H  0.79696919  0.98686603  0.37833129     0.14200
H1596       H  0.85756085  0.99458504  0.38861512     0.14800
C1597       C  0.82858565  0.04297495  0.47408824    -0.14800
C1598       C  0.81776634  0.06026644  0.49141329    -0.30000
H1599       H  0.83799683  0.02512949  0.48208804     0.14200
H1600       H  0.80922868  0.07887851  0.48441333     0.14800
C1601       C  0.08998177  0.77882779  0.56314146    -0.14800
C1602       C  0.06678204  0.78576212  0.57491643    -0.30000
H1603       H  0.09749799  0.78984606  0.54583216     0.14200
H1604       H  0.05879010  0.77374428  0.59145202     0.14800
C1605       C  0.07430894  0.88026066  0.56194371    -0.14800
C1606       C  0.09974000  0.87719384  0.57139359    -0.30000
H1607       H  0.06853477  0.89926759  0.55318852     0.14200
H1608       H  0.10495932  0.85833480  0.58087850     0.14800
C1609       C  0.86792828  0.77460271  0.55908542    -0.14800
C1610       C  0.87041132  0.75023766  0.57006565    -0.30000
H1611       H  0.84855581  0.77985503  0.55015806     0.14200
H1612       H  0.88908331  0.74407788  0.57971188     0.14800
C1613       C  0.86968139  0.86378887  0.55856738    -0.14800
C1614       C  0.87493224  0.89010942  0.55847364    -0.30000
H1615       H  0.84880400  0.85653947  0.55733001     0.14200
H1616       H  0.89569863  0.89770557  0.55999652     0.14800
C1617       C  0.96213099  0.81901088  0.56798480    -0.14800
C1618       C  0.97992733  0.83863955  0.56071846    -0.30000
H1619       H  0.96918191  0.80070832  0.57713711     0.14200
H1620       H  0.97176797  0.85637929  0.55115975     0.14800
C1621       C  0.07443960  0.77738162  0.41098865    -0.14800
C1622       C  0.10130008  0.77738773  0.41597810    -0.30000
H1623       H  0.06452435  0.75866023  0.40507206     0.14200
H1624       H  0.11193187  0.79601589  0.42075045     0.14800
C1625       C  0.07956710  0.87430835  0.39948055    -0.14800
C1626       C  0.10547181  0.87341885  0.40782673    -0.30000
H1627       H  0.07159497  0.89286877  0.39161138     0.14200
H1628       H  0.11309107  0.85432626  0.41454080     0.14800
C1629       C  0.04054187  0.84111051  0.47297946    -0.14800
C1630       C  0.05284944  0.82722941  0.49261668    -0.30000
H1631       H  0.02568524  0.85574863  0.47884479     0.14200
H1632       H  0.06793525  0.81249361  0.48784319     0.14800
C1633       C  0.87788337  0.79076685  0.38908298    -0.14800
C1634       C  0.88306462  0.76461113  0.38734268    -0.30000
H1635       H  0.85694791  0.79711865  0.38965904     0.14200
H1636       H  0.90383624  0.75779368  0.38825876     0.14800
C1637       C  0.87477976  0.87515780  0.41780592    -0.14800
C1638       C  0.87342975  0.89932334  0.40585117    -0.30000
H1639       H  0.85781582  0.86767267  0.42949934     0.14200
H1640       H  0.89029233  0.90648700  0.39367341     0.14800
C1641       C  0.89997660  0.82089085  0.48762521    -0.14800
C1642       C  0.91690215  0.81100974  0.46952293    -0.30000
H1643       H  0.88281624  0.83268958  0.48124916     0.14200
H1644       H  0.93390063  0.79918296  0.47633156     0.14800
C1645       C  0.96936597  0.84358903  0.39176994    -0.14800
C1646       C  0.98797145  0.82435343  0.38928093    -0.30000
H1647       H  0.97682211  0.86373565  0.39614771     0.14200
H1648       H  0.98059844  0.80410440  0.38527901     0.14800
C1649       C  0.55971011  0.10824781  0.19186885    -0.14800
C1650       C  0.57487390  0.10315870  0.21384878    -0.30000
H1651       H  0.54804588  0.12644842  0.19123393     0.14200
H1652       H  0.58701842  0.08537794  0.21533938     0.14800
C1653       C  0.54928792  0.91643001  0.17269221    -0.14800
C1654       C  0.56848034  0.91755373  0.19222256    -0.30000
H1655       H  0.53538724  0.89927198  0.17230531     0.14200
H1656       H  0.58341514  0.93380902  0.19247691     0.14800
C1657       C  0.56125988  0.00556720  0.11845982    -0.14800
C1658       C  0.56769274  0.02193518  0.13914672    -0.30000
H1659       H  0.55502224  0.01487940  0.09966477     0.14200
H1660       H  0.57382030  0.01324743  0.15817656     0.14800
C1661       C  0.39610163  0.90308574  0.21698732    -0.14800
C1662       C  0.40239695  0.89725405  0.19130268    -0.30000
H1663       H  0.39058511  0.92313166  0.22268992     0.14200
H1664       H  0.40851353  0.87710595  0.18640758     0.14800
C1665       C  0.46446688  0.92904900  0.13129982    -0.14800
C1666       C  0.47971649  0.94745566  0.11816047    -0.30000
H1667       H  0.47390574  0.91222605  0.14124059     0.14200
H1668       H  0.46962946  0.96368557  0.10782033     0.14800
C1669       C  0.38946382  0.08650671  0.19537190    -0.14800
C1670       C  0.40710356  0.10439805  0.20622446    -0.30000
H1671       H  0.36990600  0.08277195  0.20478358     0.14200
H1672       H  0.42701713  0.10747307  0.19756508     0.14800
C1673       C  0.38651360  0.00675412  0.13001114    -0.14800
C1674       C  0.38407800  0.98715275  0.14866547    -0.30000
H1675       H  0.39121683  0.00074603  0.10959882     0.14200
H1676       H  0.38043716  0.99302432  0.16932181     0.14800
C1677       C  0.46803292  0.05839037  0.15693424    -0.14800
C1678       C  0.48477060  0.07785117  0.14803141    -0.30000
H1679       H  0.47649384  0.04035305  0.16552868     0.14200
H1680       H  0.47665051  0.09612250  0.13961863     0.14800
C1681       C  0.55762913  0.20790181  0.08724907    -0.14800
C1682       C  0.57317331  0.23042297  0.08816444    -0.30000
H1683       H  0.54440280  0.20329890  0.10412762     0.14200
H1684       H  0.58670161  0.23564826  0.07176456     0.14800
C1685       C  0.55500889  0.11620315  0.07433728    -0.14800
C1686       C  0.55102621  0.11738324  0.10102474    -0.30000
H1687       H  0.56032147  0.09739947  0.06509004     0.14200
H1688       H  0.54649094  0.13651192  0.10995614     0.14800
C1689       C  0.54885746  0.21361324  0.89023613    -0.14800
C1690       C  0.56595922  0.23496566  0.89240488    -0.30000
H1691       H  0.53537518  0.21247350  0.87287909     0.14200
H1692       H  0.57953911  0.23704307  0.90954482     0.14800
C1693       C  0.57379510  0.15517355  0.97258017    -0.14800
C1694       C  0.57504842  0.17459079  0.99157283    -0.30000
H1695       H  0.57269561  0.13456719  0.97953475     0.14200
H1696       H  0.57472143  0.19520716  0.98471607     0.14800
C1697       C  0.38626620  0.21056556  0.89637113    -0.14800
C1698       C  0.40390658  0.22182378  0.87896256    -0.30000
H1699       H  0.36661580  0.21939291  0.89962650     0.14200
H1700       H  0.42403280  0.21365793  0.87714008     0.14800
C1701       C  0.46550414  0.16611929  0.91414145    -0.14800
C1702       C  0.48419455  0.15288039  0.92835681    -0.30000
H1703       H  0.47157702  0.17951356  0.89790849     0.14200
H1704       H  0.47753911  0.13910505  0.94406194     0.14800
C1705       C  0.38518396  0.22508164  0.08829130    -0.14800
C1706       C  0.39942363  0.20246145  0.09064748    -0.30000
H1707       H  0.37243591  0.22871023  0.07087934     0.14200
H1708       H  0.41160384  0.19937165  0.10864626     0.14800
C1709       C  0.39789622  0.10746717  0.08064747    -0.14800
C1710       C  0.40661311  0.10537082  0.10625991    -0.30000
H1711       H  0.38849791  0.09025887  0.07082052     0.14200
H1712       H  0.41534692  0.12273485  0.11619189     0.14800
C1713       C  0.38730817  0.16553032  0.99656566    -0.14800
C1714       C  0.38889258  0.14664371  0.97736479    -0.30000
H1715       H  0.38539821  0.18623985  0.99033097     0.14200
H1716       H  0.39355180  0.12640623  0.98367050     0.14800
C1717       C  0.47018741  0.16078960  0.05589425    -0.14800
C1718       C  0.48747398  0.17288593  0.03872271    -0.30000
H1719       H  0.47779241  0.15040560  0.07352276     0.14200
H1720       H  0.47936010  0.18371876  0.02159713     0.14800
C1721       C  0.38913942  0.78631557  0.09139420    -0.14800
C1722       C  0.39997692  0.78335727  0.11601488    -0.30000
H1723       H  0.37611348  0.77064278  0.08293457     0.14200
H1724       H  0.41309712  0.79919904  0.12405945     0.14800
C1725       C  0.38181440  0.89533336  0.10156963    -0.14800
C1726       C  0.39937476  0.88636473  0.08322777    -0.30000
H1727       H  0.36291091  0.88450958  0.10547733     0.14200
H1728       H  0.41775491  0.89802710  0.07909397     0.14800
C1729       C  0.38273066  0.79726445  0.89919205    -0.14800
C1730       C  0.40156064  0.78725761  0.88283674    -0.30000
H1731       H  0.36409418  0.78594600  0.90309187     0.14200
H1732       H  0.42085030  0.79779321  0.88021519     0.14800
C1733       C  0.38714453  0.85116822  0.98474655    -0.14800
C1734       C  0.39121287  0.83003517  0.00098252    -0.30000
H1735       H  0.38220727  0.87044508  0.99324015     0.14200
H1736       H  0.39525544  0.81070607  0.99207957     0.14800
C1737       C  0.56054417  0.79303474  0.09175240    -0.14800
C1738       C  0.56865281  0.76805928  0.08654174    -0.30000
H1739       H  0.55471193  0.79810064  0.11212730     0.14200
H1740       H  0.57405588  0.76208269  0.06635159     0.14800
C1741       C  0.55521026  0.88515780  0.08756065    -0.14800
C1742       C  0.55673526  0.91117317  0.08078362    -0.30000
H1743       H  0.55177661  0.87990602  0.10850024     0.14200
H1744       H  0.56077666  0.91712757  0.06013546     0.14800
C1745       C  0.48562816  0.83170994  0.06381424    -0.14800
C1746       C  0.46487529  0.83952981  0.04804252    -0.30000
H1747       H  0.48152533  0.82340300  0.08362998     0.14200
H1748       H  0.46894487  0.85020645  0.02937651     0.14800
C1749       C  0.55021267  0.79612125  0.89210156    -0.14800
C1750       C  0.56809016  0.77618743  0.89369634    -0.30000
H1751       H  0.53624669  0.79631960  0.87510010     0.14200
H1752       H  0.58267442  0.77537084  0.91009916     0.14800
C1753       C  0.47882227  0.83208201  0.93313720    -0.14800
C1754       C  0.46045415  0.84248004  0.91648275    -0.30000
H1755       H  0.47203438  0.82187982  0.95132783     0.14200
H1756       H  0.46665243  0.85245201  0.89799118     0.14800
C1757       C  0.56463150  0.85157500  0.97933198    -0.14800
C1758       C  0.56275607  0.83187386  0.99795844    -0.30000
H1759       H  0.56718863  0.87215484  0.98590107     0.14200
H1760       H  0.55862860  0.81175485  0.99050873     0.14800
C1761       C  0.55951782  0.09258720  0.77526859    -0.14800
C1762       C  0.54965209  0.11725955  0.77111207    -0.30000
H1763       H  0.57243981  0.08328499  0.76053761     0.14200
H1764       H  0.53693432  0.12580100  0.78654576     0.14800
C1765       C  0.55672901  0.09988001  0.87561147    -0.14800
C1766       C  0.55389466  0.12660151  0.87566009    -0.30000
H1767       H  0.55756522  0.08894609  0.89451587     0.14200
H1768       H  0.54972649  0.13694754  0.85687197     0.14800
C1769       C  0.56330843  0.89692766  0.78610082    -0.14800
C1770       C  0.57536786  0.90075494  0.76209628    -0.30000
H1771       H  0.55448720  0.87736009  0.79075573     0.14200
H1772       H  0.58396584  0.92010397  0.75649287     0.14800
C1773       C  0.55715472  0.90600059  0.88000335    -0.14800
C1774       C  0.53935149  0.88578231  0.88507380    -0.30000
H1775       H  0.57359157  0.91038276  0.89404305     0.14200
H1776       H  0.52251545  0.88211340  0.87139662     0.14800
C1777       C  0.56823007  0.99149254  0.82351354    -0.14800
C1778       C  0.55802978  0.01076306  0.83915475    -0.30000
H1779       H  0.57990169  0.99690118  0.80580616     0.14200
H1780       H  0.54670765  0.00458403  0.85690087     0.14800
C1781       C  0.39512864  0.09240362  0.77693438    -0.14800
C1782       C  0.37749442  0.11135430  0.77010920    -0.30000
H1783       H  0.41017357  0.08616120  0.76248672     0.14200
H1784       H  0.36131590  0.11679300  0.78361705     0.14800
C1785       C  0.38886540  0.09456005  0.87772322    -0.14800
C1786       C  0.39843433  0.11998306  0.87905863    -0.30000
H1787       H  0.37764159  0.08532870  0.89415103     0.14200
H1788       H  0.40937274  0.12794357  0.86175590     0.14800
C1789       C  0.46418327  0.06085446  0.82031504    -0.14800
C1790       C  0.48510746  0.06242445  0.83787586    -0.30000
H1791       H  0.46811349  0.05829676  0.79903002     0.14200
H1792       H  0.48130152  0.06264019  0.85935195     0.14800
C1793       C  0.39349562  0.90783574  0.77856254    -0.14800
C1794       C  0.40234752  0.88273600  0.77638401    -0.30000
H1795       H  0.38180862  0.91643635  0.76218386     0.14200
H1796       H  0.41303147  0.87353142  0.79299243     0.14800
C1797       C  0.40807677  0.89660778  0.87038923    -0.14800
C1798       C  0.39201108  0.89394617  0.89214886    -0.30000
H1799       H  0.42303932  0.88166948  0.86614949     0.14200
H1800       H  0.37743965  0.90916059  0.89681602     0.14800
C1801       C  0.46940095  0.94545050  0.81723428    -0.14800
C1802       C  0.48764731  0.92815816  0.82659575    -0.30000
H1803       H  0.47622710  0.96351203  0.80692125     0.14200
H1804       H  0.48093318  0.90988137  0.83665616     0.14800
C1805       C  0.38382621  0.98975136  0.83791551    -0.14800
C1806       C  0.38713893  0.00939378  0.81967473    -0.30000
H1807       H  0.37822640  0.99441625  0.85843699     0.14200
H1808       H  0.39332708  0.00390132  0.79951060     0.14800
C1809       C  0.08864789  0.41335744  0.20795181    -0.14800
C1810       C  0.08539382  0.40390631  0.23310002    -0.30000
H1811       H  0.10819612  0.42179856  0.20194324     0.14200
H1812       H  0.06571932  0.39662754  0.23999156     0.14800
C1813       C  0.89259581  0.41071885  0.19219177    -0.14800
C1814       C  0.89252562  0.39355174  0.21314607    -0.30000
H1815       H  0.87657430  0.42525422  0.19062551     0.14200
H1816       H  0.90754439  0.37808920  0.21479550     0.14800
C1817       C  0.98068898  0.38811271  0.14346000    -0.14800
C1818       C  0.99720641  0.38941172  0.16536093    -0.30000
H1819       H  0.99004570  0.38906597  0.12377840     0.14200
H1820       H  0.98779015  0.38930567  0.18502348     0.14800
C1821       C  0.07092484  0.57823066  0.20539069    -0.14800
C1822       C  0.08872097  0.56178477  0.21727262    -0.30000
H1823       H  0.06634351  0.59727403  0.21457738     0.14200
H1824       H  0.09223934  0.54237720  0.20842986     0.14800
C1825       C  0.05640277  0.49895452  0.16167790    -0.14800
C1826       C  0.03771716  0.48076459  0.16990439    -0.30000
H1827       H  0.07671798  0.49296983  0.15647410     0.14200
H1828       H  0.01784913  0.48762030  0.17579314     0.14800
C1829       C  0.87885766  0.55870544  0.19506975    -0.14800
C1830       C  0.88135453  0.57266742  0.21801262    -0.30000
H1831       H  0.86026299  0.54722744  0.19129302     0.14200
H1832       H  0.89968495  0.58408218  0.22276156     0.14800
C1833       C  0.91561895  0.49021765  0.14963588    -0.14800
C1834       C  0.93440277  0.47435150  0.13919692    -0.30000
H1835       H  0.89703147  0.48175469  0.15796731     0.14200
H1836       H  0.95265414  0.48330586  0.13055771     0.14800
C1837       C  0.97170744  0.57551364  0.15440596    -0.14800
C1838       C  0.99181631  0.57078368  0.13688578    -0.30000
H1839       H  0.97689304  0.58347633  0.17407110     0.14200
H1840       H  0.98600038  0.56224139  0.11755408     0.14800
C1841       C  0.17939515  0.41706934  0.88965197    -0.14800
C1842       C  0.20170368  0.40196741  0.89060940    -0.30000
H1843       H  0.17705456  0.43114908  0.87312818     0.14200
H1844       H  0.20465006  0.38759185  0.90667844     0.14800
C1845       C  0.17428469  0.42008831  0.08418632    -0.14800
C1846       C  0.19195594  0.40013675  0.08734444    -0.30000
H1847       H  0.17645398  0.43776671  0.09673263     0.14200
H1848       H  0.18936109  0.38170248  0.07605805     0.14800
C1849       C  0.08107170  0.41089665  0.09300849    -0.14800
C1850       C  0.08410728  0.42184088  0.11757653    -0.30000
H1851       H  0.06303025  0.39902004  0.08826379     0.14200
H1852       H  0.10230241  0.43331419  0.12246248     0.14800
C1853       C  0.11843493  0.39512002  0.99953808    -0.14800
C1854       C  0.13913182  0.39599078  0.98171276    -0.30000
H1855       H  0.09794839  0.39557957  0.99144641     0.14200
H1856       H  0.15960810  0.39705606  0.98983480     0.14800
C1857       C  0.18699630  0.56736091  0.09423128    -0.14800
C1858       C  0.20871714  0.58413306  0.09353574    -0.30000
H1859       H  0.18401748  0.55469184  0.11183108     0.14200
H1860       H  0.21207270  0.59745844  0.07654447     0.14800
C1861       C  0.09253914  0.57274265  0.08767513    -0.14800
C1862       C  0.09253403  0.56647308  0.11410860    -0.30000
H1863       H  0.07417955  0.57968154  0.07802038     0.14200
H1864       H  0.11127059  0.56069686  0.12374940     0.14800
C1865       C  0.13428935  0.49842009  0.06221300    -0.14800
C1866       C  0.12077903  0.48229138  0.04501159    -0.30000
H1867       H  0.14330482  0.49049884  0.08046860     0.14200
H1868       H  0.11150949  0.49094978  0.02717823     0.14800
C1869       C  0.19833455  0.58941423  0.89597048    -0.14800
C1870       C  0.17408055  0.57772406  0.89050179    -0.30000
H1871       H  0.20291988  0.59707211  0.91590389     0.14200
H1872       H  0.17038635  0.56986106  0.87042746     0.14800
C1873       C  0.13108350  0.50152288  0.91860398    -0.14800
C1874       C  0.14171727  0.48405192  0.93622591    -0.30000
H1875       H  0.12192496  0.49451064  0.89994018     0.14200
H1876       H  0.15142107  0.49175587  0.95436288     0.14800
C1877       C  0.12606322  0.57894598  0.98250886    -0.14800
C1878       C  0.14713176  0.57618838  0.99971052    -0.30000
H1879       H  0.10588135  0.58146942  0.99058070     0.14200
H1880       H  0.16675556  0.57182885  0.99108451     0.14800
C1881       C  0.78355478  0.57730687  0.08717172    -0.14800
C1882       C  0.75867650  0.58684011  0.08246890    -0.30000
H1883       H  0.78846404  0.56956043  0.10703396     0.14200
H1884       H  0.75286061  0.59368830  0.06255552     0.14800
C1885       C  0.87755449  0.57462848  0.08398669    -0.14800
C1886       C  0.88095812  0.55610451  0.10326583    -0.30000
H1887       H  0.89167954  0.59152507  0.08244616     0.14200
H1888       H  0.86724599  0.53892665  0.10386425     0.14800
C1889       C  0.78389970  0.60174186  0.90223258    -0.14800
C1890       C  0.76195600  0.58540657  0.90320379    -0.30000
H1891       H  0.78305813  0.61961525  0.88973029     0.14200
H1892       H  0.76292833  0.56667491  0.91429517     0.14800
C1893       C  0.84719335  0.58838794  0.97851506    -0.14800
C1894       C  0.82719739  0.59301644  0.99592302    -0.30000
H1895       H  0.86640126  0.58095585  0.98599089     0.14200
H1896       H  0.80816089  0.60099238  0.98862082     0.14800
C1897       C  0.77857060  0.42189978  0.89077198    -0.14800
C1898       C  0.77305811  0.43563874  0.86831197    -0.30000
H1899       H  0.76472359  0.40582669  0.89695578     0.14200
H1900       H  0.78592989  0.45236617  0.86206926     0.14800
C1901       C  0.82741431  0.49962486  0.91425376    -0.14800
C1902       C  0.82160450  0.52116345  0.92950660    -0.30000
H1903       H  0.83578134  0.50272178  0.89431895     0.14200
H1904       H  0.81129003  0.51837162  0.94856120     0.14800
C1905       C  0.77322426  0.41616505  0.08258414    -0.14800
C1906       C  0.76564882  0.43093802  0.10365407    -0.30000
H1907       H  0.76030023  0.39957101  0.07591672     0.14200
H1908       H  0.77762221  0.44840821  0.10952996     0.14800
C1909       C  0.86538559  0.41497855  0.09935884    -0.14800
C1910       C  0.89043662  0.40505816  0.09778723    -0.30000
H1911       H  0.85785709  0.42156386  0.11859643     0.14200
H1912       H  0.89785832  0.39750107  0.07883919     0.14800
C1913       C  0.81696299  0.42575157  0.98266037    -0.14800
C1914       C  0.83425333  0.41490595  0.00054877    -0.30000
H1915       H  0.79842219  0.43423169  0.99042016     0.14200
H1916       H  0.85292301  0.40583515  0.99418766     0.14800
C1917       C  0.82817545  0.49040052  0.06439825    -0.14800
C1918       C  0.82069208  0.50761557  0.04498385    -0.30000
H1919       H  0.83574106  0.49745811  0.08370782     0.14200
H1920       H  0.81203422  0.49965113  0.02643554     0.14800
C1921       C  0.89285178  0.42843792  0.78203471    -0.14800
C1922       C  0.89205722  0.40868011  0.76372900    -0.30000
H1923       H  0.87828753  0.44436768  0.78015285     0.14200
H1924       H  0.90573639  0.39200918  0.76523451     0.14800
C1925       C  0.87777803  0.43313627  0.87094256    -0.14800
C1926       C  0.87567793  0.42626250  0.89711091    -0.30000
H1927       H  0.86049287  0.44141455  0.86067696     0.14200
H1928       H  0.89308468  0.41789970  0.90736550     0.14800
C1929       C  0.08739826  0.41803466  0.77895253    -0.14800
C1930       C  0.08426906  0.40385183  0.75617043    -0.30000
H1931       H  0.10626585  0.42926712  0.78207556     0.14200
H1932       H  0.06590282  0.39213168  0.75231233     0.14800
C1933       C  0.08518282  0.41753817  0.89583218    -0.14800
C1934       C  0.08818130  0.42321168  0.86954358    -0.30000
H1935       H  0.06543363  0.41146233  0.90356720     0.14200
H1936       H  0.10825361  0.42831734  0.86211363     0.14800
C1937       C  0.99430002  0.40722570  0.82307360    -0.14800
C1938       C  0.97615422  0.41071574  0.84319749    -0.30000
H1939       H  0.98639058  0.40553168  0.80273555     0.14200
H1940       H  0.98437091  0.41442071  0.86320300     0.14800
C1941       C  0.07084449  0.57883106  0.77302188    -0.14800
C1942       C  0.09197352  0.56349292  0.76698951    -0.30000
H1943       H  0.06626489  0.59577113  0.76011042     0.14200
H1944       H  0.09641428  0.54603445  0.77905889     0.14800
C1945       C  0.08024096  0.57385252  0.89156011    -0.14800
C1946       C  0.08313181  0.57208952  0.86478482    -0.30000
H1947       H  0.06057034  0.57842702  0.89991430     0.14200
H1948       H  0.10269489  0.56752653  0.85633463     0.14800
C1949       C  0.03375155  0.50692428  0.82667837    -0.14800
C1950       C  0.05324595  0.49020355  0.81915121    -0.30000
H1951       H  0.01507109  0.49854552  0.83493831     0.14200
H1952       H  0.07258362  0.49790519  0.81183955     0.14800
C1953       C  0.87418569  0.58033979  0.77080388    -0.14800
C1954       C  0.87436972  0.59232919  0.74662484    -0.30000
H1955       H  0.85574642  0.56993487  0.77724853     0.14200
H1956       H  0.89211709  0.60322284  0.73927762     0.14800
C1957       C  0.87833680  0.58204417  0.85855170    -0.14800
C1958       C  0.88215940  0.58968938  0.88409004    -0.30000
H1959       H  0.85831335  0.57444677  0.85272267     0.14200
H1960       H  0.90182870  0.59693711  0.89122827     0.14800
C1961       C  0.91266850  0.51173594  0.81684823    -0.14800
C1962       C  0.93139901  0.49688427  0.82924471    -0.30000
H1963       H  0.89387867  0.50276895  0.80940963     0.14200
H1964       H  0.94968199  0.50663776  0.83711767     0.14800
C1965       C  0.96964161  0.59536796  0.81023675    -0.14800
C1966       C  0.98746464  0.59308500  0.83099913    -0.30000
H1967       H  0.97752951  0.59597305  0.78992546     0.14200
H1968       H  0.97912406  0.59036461  0.85103564     0.14800
loop_ 
_geom_bond_atom_site_label_1 
_geom_bond_atom_site_label_2 
_geom_bond_distance 
_geom_bond_site_symmetry_2 
_ccdc_geom_bond_type 
C1            C2   1.546       .  S
C1            C7   1.535       .  S
C1            C5   1.548       .  S
C1         C1965   1.517       .  S
C2            H9   1.085       .  S
C2            C3   1.372       .  D
C3            C4   1.529       .  S
C3         C1953   1.472       .  S
C4            C8   1.519       .  S
C4            C6   1.524       .  S
C4           H10   1.112       .  S
C5           H11   1.085       .  S
C5            C6   1.370       .  D
C6         C1957   1.468       .  S
C7           H12   1.077       .  S
C7            C8   1.357       .  D
C8         C1961   1.480       .  S
C13          C14   1.527       .  S
C13          C19   1.542       .  S
C13          C17   1.540       .  S
C13        C1966   1.523   1_455  S
C14          H21   1.081   1_455  S
C14          C15   1.354       .  D
C15          C16   1.536       .  S
C15        C1949   1.480       .  S
C16          C20   1.547       .  S
C16          C18   1.540       .  S
C16          H22   1.106       .  S
C17          H23   1.085       .  S
C17          C18   1.375       .  D
C18        C1946   1.480       .  S
C19          H24   1.085       .  S
C19          C20   1.366       .  D
C20        C1941   1.491       .  S
C25          C26   1.545       .  S
C25          C31   1.532       .  S
C25          C29   1.552       .  S
C25        C1937   1.531   1_455  S
C26          H33   1.085       .  S
C26          C27   1.373       .  D
C27          C28   1.534       .  S
C27        C1929   1.485       .  S
C28          C32   1.526       .  S
C28          C30   1.534       .  S
C28          H34   1.112       .  S
C29          H35   1.085       .  S
C29          C30   1.377       .  D
C30        C1934   1.487       .  S
C31          H36   1.078       .  S
C31          C32   1.363       .  D
C32        C1950   1.489       .  S
C37          C38   1.552       .  S
C37          C43   1.531       .  S
C37          C41   1.555       .  S
C37        C1938   1.535       .  S
C38          H45   1.085       .  S
C38          C39   1.380       .  D
C39          C40   1.539       .  S
C39        C1925   1.492       .  S
C40          C44   1.530       .  S
C40          C42   1.530       .  S
C40          H46   1.109       .  S
C41          H47   1.084       .  S
C41          C42   1.371       .  D
C42        C1921   1.486       .  S
C43          H48   1.082       .  S
C43          C44   1.352       .  D
C44        C1962   1.477       .  S
C49          C50   1.535       .  S
C49          C55   1.527       .  S
C49          C53   1.542       .  S
C49        C1914   1.517       .  S
C50          H57   1.084       .  S
C50          C51   1.375       .  D
C51          C52   1.543       .  S
C51        C1909   1.482       .  S
C52          C56   1.534       .  S
C52          C54   1.546       .  S
C52          H58   1.108       .  S
C53          H59   1.086       .  S
C53          C54   1.368       .  D
C54        C1905   1.490       .  S
C55          H60   1.086       .  S
C55          C56   1.358       .  D
C56        C1917   1.489       .  S
C61          C62   1.523       .  S
C61          C67   1.542       .  S
C61          C65   1.544       .  S
C61        C1913   1.510       .  S
C62          H69   1.087       .  S
C62          C63   1.357       .  D
C63          C64   1.547       .  S
C63        C1897   1.480       .  S
C64          C68   1.541       .  S
C64          C66   1.557       .  S
C64          H70   1.103       .  S
C65          H71   1.084       .  S
C65          C66   1.374       .  D
C66        C1926   1.504       .  S
C67          H72   1.086       .  S
C67          C68   1.364       .  D
C68        C1901   1.496       .  S
C73          C74   1.524       .  S
C73          C79   1.530       .  S
C73          C77   1.540       .  S
C73        C1958   1.508       .  S
C74          H81   1.086       .  S
C74          C75   1.365       .  D
C75          C76   1.556       .  S
C75        C1893   1.475       .  S
C76          C80   1.551       .  S
C76          C78   1.547       .  S
C76          H82   1.110       .  S
C77          H83   1.085       .  S
C77          C78   1.365       .  D
C78        C1902   1.498       .  S
C79          H84   1.087       .  S
C79          C80   1.361       .  D
C80        C1889   1.486       .  S
C85          C86   1.533       .  S
C85          C91   1.527       .  S
C85          C89   1.542       .  S
C85        C1894   1.510   1_554  S
C86          H93   1.085       .  S
C86          C87   1.370       .  D
C87          C88   1.539       .  S
C87        C1881   1.482       .  S
C88          C92   1.535       .  S
C88          C90   1.554       .  S
C88          H94   1.107       .  S
C89          H95   1.086       .  S
C89          C90   1.370       .  D
C90        C1885   1.496       .  S
C91          H96   1.088       .  S
C91          C92   1.356       .  D
C92        C1918   1.475       .  S
C97          C98   1.544       .  S
C97         C103   1.531       .  S
C97         C101   1.536       .  S
C97        C1877   1.523       .  S
C98         H105   1.084       .  S
C98          C99   1.376       .  D
C99         C100   1.540       .  S
C99        C1870   1.489       .  S
C100        C104   1.536       .  S
C100        C102   1.546       .  S
C100        H106   1.108       .  S
C101        H107   1.086       .  S
C101        C102   1.365       .  D
C102       C1945   1.486       .  S
C103        H108   1.083       .  S
C103        C104   1.365       .  D
C104       C1873   1.495       .  S
C109        C110   1.548       .  S
C109        C115   1.532       .  S
C109        C113   1.540       .  S
C109       C1878   1.523   1_554  S
C110        H117   1.085       .  S
C110        C111   1.374       .  D
C111        C112   1.545       .  S
C111       C1861   1.494       .  S
C112        C116   1.527       .  S
C112        C114   1.537       .  S
C112        H118   1.107       .  S
C113        H119   1.085       .  S
C113        C114   1.371       .  D
C114       C1857   1.486       .  S
C115        H120   1.084       .  S
C115        C116   1.362       .  D
C116       C1865   1.484       .  S
C121        C122   1.549       .  S
C121        C127   1.528       .  S
C121        C125   1.536       .  S
C121       C1853   1.523   1_554  S
C122        H129   1.084       .  S
C122        C123   1.371       .  D
C123        C124   1.534       .  S
C123       C1845   1.486       .  S
C124        C128   1.534       .  S
C124        C126   1.552       .  S
C124        H130   1.105       .  S
C125        H131   1.086       .  S
C125        C126   1.373       .  D
C126       C1849   1.488       .  S
C127        H132   1.083       .  S
C127        C128   1.351       .  D
C128       C1866   1.477       .  S
C133        C134   1.544       .  S
C133        C139   1.529       .  S
C133        C137   1.536       .  S
C133       C1854   1.523       .  S
C134        H141   1.085       .  S
C134        C135   1.370       .  D
C135        C136   1.551       .  S
C135       C1933   1.496       .  S
C136        C140   1.537       .  S
C136        C138   1.545       .  S
C136        H142   1.107       .  S
C137        H143   1.084       .  S
C137        C138   1.375       .  D
C138       C1841   1.490       .  S
C139        H144   1.083       .  S
C139        C140   1.355       .  D
C140       C1874   1.484       .  S
C145        C146   1.553       .  S
C145        C151   1.538       .  S
C145        C149   1.537       .  S
C145       C1837   1.526       .  S
C146        H153   1.085       .  S
C146        C147   1.379       .  D
C147        C148   1.533       .  S
C147       C1886   1.485       .  S
C148        C152   1.522       .  S
C148        C150   1.531       .  S
C148        H154   1.112       .  S
C149        H155   1.084       .  S
C149        C150   1.366       .  D
C150       C1829   1.479       .  S
C151        H156   1.080       .  S
C151        C152   1.363       .  D
C152       C1833   1.482       .  S
C157        C158   1.552       .  S
C157        C163   1.535       .  S
C157        C161   1.539       .  S
C157       C1838   1.529   1_455  S
C158        H165   1.084       .  S
C158        C159   1.372       .  D
C159        C160   1.546       .  S
C159       C1821   1.497       .  S
C160        C164   1.529       .  S
C160        C162   1.542       .  S
C160        H166   1.109       .  S
C161        H167   1.084       .  S
C161        C162   1.371       .  D
C162       C1862   1.489       .  S
C163        H168   1.081       .  S
C163        C164   1.362       .  D
C164       C1825   1.489       .  S
C169        C170   1.543       .  S
C169        C175   1.530       .  S
C169        C173   1.536       .  S
C169       C1817   1.517       .  S
C170        H177   1.083       .  S
C170        C171   1.369       .  D
C171        C172   1.536       .  S
C171       C1813   1.486       .  S
C172        C176   1.534       .  S
C172        C174   1.552       .  S
C172        H178   1.105       .  S
C173        H179   1.086       .  S
C173        C174   1.372       .  D
C174       C1910   1.485       .  S
C175        H180   1.084       .  S
C175        C176   1.351       .  D
C176       C1834   1.477       .  S
C181        C182   1.542       .  S
C181        C187   1.532       .  S
C181        C185   1.534       .  S
C181       C1818   1.518   1_455  S
C182        H189   1.082       .  S
C182        C183   1.370       .  D
C183        C184   1.536       .  S
C183       C1850   1.485       .  S
C184        C188   1.536       .  S
C184        C186   1.540       .  S
C184        H190   1.110       .  S
C185        H191   1.085       .  S
C185        C186   1.372       .  D
C186       C1809   1.475       .  S
C187        H192   1.083   1_455  S
C187        C188   1.357       .  D
C188       C1826   1.483       .  S
C193        C194   1.539       .  S
C193        C199   1.529       .  S
C193        C197   1.532       .  S
C193       C1805   1.510       .  S
C194        H201   1.086       .  S
C194        C195   1.371       .  D
C195        C196   1.552       .  S
C195       C1793   1.491       .  S
C196        C200   1.536       .  S
C196        C198   1.543       .  S
C196        H202   1.107       .  S
C197        H203   1.084       .  S
C197        C198   1.370       .  D
C198       C1797   1.485       .  S
C199        H204   1.088       .  S
C199        C200   1.352       .  D
C200       C1801   1.473       .  S
C205        C206   1.538       .  S
C205        C211   1.538       .  S
C205        C209   1.540       .  S
C205       C1785   1.515       .  S
C206        H213   1.085       .  S
C206        C207   1.376       .  D
C207        C208   1.539       .  S
C207       C1806   1.477       .  S
C208        C212   1.527       .  S
C208        C210   1.533       .  S
C208        H214   1.112       .  S
C209        H215   1.086       .  S
C209        C210   1.362       .  D
C210       C1789   1.485       .  S
C211        H216   1.085       .  S
C211        C212   1.362       .  D
C212       C1781   1.476       .  S
C217        C218   1.543       .  S
C217        C223   1.534       .  S
C217        C221   1.535       .  S
C217       C1777   1.521       .  S
C218        H225   1.086       .  S
C218        C219   1.373       .  D
C219        C220   1.546       .  S
C219       C1773   1.493       .  S
C220        C224   1.530       .  S
C220        C222   1.540       .  S
C220        H226   1.108       .  S
C221        H227   1.084       .  S
C221        C222   1.369       .  D
C222       C1769   1.487       .  S
C223        H228   1.084       .  S
C223        C224   1.366       .  D
C224       C1802   1.488       .  S
C229        C230   1.541       .  S
C229        C235   1.533       .  S
C229        C233   1.537       .  S
C229       C1761   1.520       .  S
C230        H237   1.084       .  S
C230        C231   1.380       .  D
C231        C232   1.546       .  S
C231       C1778   1.493       .  S
C232        C236   1.537       .  S
C232        C234   1.538       .  S
C232        H238   1.111       .  S
C233        H239   1.086       .  S
C233        C234   1.364       .  D
C234       C1790   1.485       .  S
C235        H240   1.086       .  S
C235        C236   1.362       .  D
C236       C1765   1.486       .  S
C241        C242   1.552       .  S
C241        C247   1.525       .  S
C241        C245   1.542       .  S
C241       C1757   1.525       .  S
C242        H249   1.084       .  S
C242        C243   1.379       .  D
C243        C244   1.538       .  S
C243       C1749   1.490       .  S
C244        C248   1.527       .  S
C244        C246   1.541       .  S
C244        H250   1.111       .  S
C245        H251   1.085       .  S
C245        C246   1.373       .  D
C246       C1774   1.484       .  S
C247        H252   1.078       .  S
C247        C248   1.346       .  D
C248       C1753   1.467       .  S
C253        C254   1.553       .  S
C253        C259   1.543       .  S
C253        C257   1.537       .  S
C253       C1758   1.525   1_554  S
C254        H261   1.084       .  S
C254        C255   1.378       .  D
C255        C256   1.533       .  S
C255       C1741   1.486       .  S
C256        C260   1.527       .  S
C256        C258   1.532       .  S
C256        H262   1.112       .  S
C257        H263   1.085       .  S
C257        C258   1.365       .  D
C258       C1737   1.480       .  S
C259        H264   1.078       .  S
C259        C260   1.361       .  D
C260       C1745   1.483       .  S
C265        C266   1.535       .  S
C265        C271   1.533       .  S
C265        C269   1.538       .  S
C265       C1733   1.516       .  S
C266        H273   1.086       .  S
C266        C267   1.370       .  D
C267        C268   1.544       .  S
C267       C1798   1.485       .  S
C268        C272   1.524       .  S
C268        C270   1.544       .  S
C268        H274   1.107       .  S
C269        H275   1.086       .  S
C269        C270   1.365       .  D
C270       C1729   1.484       .  S
C271        H276   1.086       .  S
C271        C272   1.366       .  D
C272       C1754   1.479       .  S
C277        C278   1.528       .  S
C277        C283   1.534       .  S
C277        C281   1.537       .  S
C277       C1721   1.512       .  S
C278        H285   1.087       .  S
C278        C279   1.365       .  D
C279        C280   1.548       .  S
C279       C1734   1.477       .  S
C280        C284   1.546       .  S
C280        C282   1.540       .  S
C280        H286   1.111       .  S
C281        H287   1.086       .  S
C281        C282   1.364       .  D
C282       C1746   1.486       .  S
C283        H288   1.086       .  S
C283        C284   1.369       .  D
C284       C1726   1.485       .  S
C289        C290   1.538       .  S
C289        C295   1.533       .  S
C289        C293   1.534       .  S
C289       C1713   1.518   1_554  S
C290        H297   1.086       .  S
C290        C291   1.371       .  D
C291        C292   1.553       .  S
C291       C1709   1.494       .  S
C292        C296   1.531       .  S
C292        C294   1.541       .  S
C292        H298   1.106       .  S
C293        H299   1.084       .  S
C293        C294   1.369       .  D
C294       C1706   1.488       .  S
C295        H300   1.080       .  S
C295        C296   1.366       .  D
C296       C1717   1.491       .  S
C301        C302   1.547       .  S
C301        C307   1.536       .  S
C301        C305   1.541       .  S
C301       C1714   1.519       .  S
C302        H309   1.085       .  S
C302        C303   1.368       .  D
C303        C304   1.542       .  S
C303       C1697   1.490       .  S
C304        C308   1.525       .  S
C304        C306   1.537       .  S
C304        H310   1.110       .  S
C305        H311   1.085       .  S
C305        C306   1.370       .  D
C306       C1786   1.475       .  S
C307        H312   1.082       .  S
C307        C308   1.363       .  D
C308       C1701   1.489       .  S
C313        C314   1.541       .  S
C313        C319   1.527       .  S
C313        C317   1.549       .  S
C313       C1693   1.525       .  S
C314        H321   1.086       .  S
C314        C315   1.373       .  D
C315        C316   1.540       .  S
C315       C1766   1.476       .  S
C316        C320   1.537       .  S
C316        C318   1.539       .  S
C316        H322   1.111       .  S
C317        H323   1.083       .  S
C317        C318   1.373       .  D
C318       C1689   1.494       .  S
C319        H324   1.084       .  S
C319        C320   1.353       .  D
C320       C1702   1.477       .  S
C325        C326   1.542       .  S
C325        C331   1.527       .  S
C325        C329   1.543       .  S
C325       C1694   1.523   1_554  S
C326        H333   1.084       .  S
C326        C327   1.377       .  D
C327        C328   1.545       .  S
C327       C1681   1.493       .  S
C328        C332   1.538       .  S
C328        C330   1.550       .  S
C328        H334   1.108       .  S
C329        H335   1.085       .  S
C329        C330   1.368       .  D
C330       C1685   1.495       .  S
C331        H336   1.083   1_554  S
C331        C332   1.353       .  D
C332       C1718   1.481       .  S
C337        C338   1.548       .  S
C337        C343   1.529       .  S
C337        C341   1.543       .  S
C337       C1673   1.528       .  S
C338        H345   1.085       .  S
C338        C339   1.375       .  D
C339        C340   1.547       .  S
C339       C1669   1.493       .  S
C340        C344   1.527       .  S
C340        C342   1.537       .  S
C340        H346   1.106       .  S
C341        H347   1.084       .  S
C341        C342   1.374       .  D
C342       C1710   1.489       .  S
C343        H348   1.073       .  S
C343        C344   1.347       .  D
C344       C1677   1.473       .  S
C349        C350   1.542       .  S
C349        C355   1.536       .  S
C349        C353   1.536       .  S
C349       C1674   1.529       .  S
C350        H357   1.085       .  S
C350        C351   1.374       .  D
C351        C352   1.543       .  S
C351       C1725   1.477       .  S
C352        C356   1.530       .  S
C352        C354   1.540       .  S
C352        H358   1.112       .  S
C353        H359   1.084       .  S
C353        C354   1.367       .  D
C354       C1662   1.489       .  S
C355        H360   1.070       .  S
C355        C356   1.364       .  D
C356       C1665   1.494       .  S
C361        C362   1.556       .  S
C361        C367   1.528       .  S
C361        C365   1.539       .  S
C361       C1657   1.530   1_565  S
C362        H369   1.082       .  S
C362        C363   1.377       .  D
C363        C364   1.541       .  S
C363       C1653   1.499       .  S
C364        C368   1.538       .  S
C364        C366   1.552       .  S
C364        H370   1.109       .  S
C365        H371   1.086       .  S
C365        C366   1.370       .  D
C366       C1742   1.491       .  S
C367        H372   1.087       .  S
C367        C368   1.355       .  D
C368       C1666   1.483       .  S
C373        C374   1.552       .  S
C373        C379   1.535       .  S
C373        C377   1.540       .  S
C373       C1658   1.526       .  S
C374        H381   1.085       .  S
C374        C375   1.378       .  D
C375        C376   1.533       .  S
C375       C1686   1.488       .  S
C376        C380   1.525       .  S
C376        C378   1.534       .  S
C376        H382   1.112       .  S
C377        H383   1.084       .  S
C377        C378   1.368       .  D
C378       C1649   1.480       .  S
C379        H384   1.083       .  S
C379        C380   1.366       .  D
C380       C1678   1.484       .  S
C385        C386   1.546       .  S
C385        C391   1.529       .  S
C385        C389   1.549       .  S
C385       C1645   1.528       .  S
C386        H393   1.085       .  S
C386        C387   1.377       .  D
C387        C388   1.535       .  S
C387       C1633   1.473       .  S
C388        C392   1.528       .  S
C388        C390   1.531       .  S
C388        H394   1.112       .  S
C389        H395   1.085       .  S
C389        C390   1.373       .  D
C390       C1637   1.491       .  S
C391        H396   1.075       .  S
C391        C392   1.346       .  D
C392       C1642   1.468       .  S
C397        C398   1.539       .  S
C397        C403   1.529       .  S
C397        C401   1.535       .  S
C397       C1646   1.530   1_455  S
C398        H405   1.086       .  S
C398        C399   1.377       .  D
C399        C400   1.566       .  S
C399       C1625   1.499       .  S
C400        C404   1.540       .  S
C400        C402   1.551       .  S
C400        H406   1.106       .  S
C401        H407   1.087       .  S
C401        C402   1.365       .  D
C402       C1621   1.497       .  S
C403        H408   1.076   1_455  S
C403        C404   1.353       .  D
C404       C1629   1.483       .  S
C409        C410   1.547       .  S
C409        C415   1.536       .  S
C409        C413   1.546       .  S
C409       C1617   1.520       .  S
C410        H417   1.085       .  S
C410        C411   1.371       .  D
C411        C412   1.523       .  S
C411       C1613   1.472       .  S
C412        C416   1.520       .  S
C412        C414   1.527       .  S
C412        H418   1.113       .  S
C413        H419   1.085       .  S
C413        C414   1.371       .  D
C414       C1609   1.471       .  S
C415        H420   1.085       .  S
C415        C416   1.365       .  D
C416       C1641   1.477       .  S
C421        C422   1.542       .  S
C421        C427   1.534       .  S
C421        C425   1.539       .  S
C421       C1618   1.523   1_455  S
C422        H429   1.084       .  S
C422        C423   1.368       .  D
C423        C424   1.549       .  S
C423       C1602   1.488       .  S
C424        C428   1.536       .  S
C424        C426   1.542       .  S
C424        H430   1.107       .  S
C425        H431   1.086       .  S
C425        C426   1.368       .  D
C426       C1605   1.485       .  S
C427        H432   1.087       .  S
C427        C428   1.366       .  D
C428       C1630   1.494       .  S
C433        C434   1.544       .  S
C433        C439   1.530       .  S
C433        C437   1.535       .  S
C433       C1594   1.525       .  S
C434        H441   1.084       .  S
C434        C435   1.365       .  D
C435        C436   1.544       .  S
C435       C1585   1.488       .  S
C436        C440   1.536       .  S
C436        C438   1.545       .  S
C436        H442   1.107       .  S
C437        H443   1.084       .  S
C437        C438   1.376       .  D
C438       C1589   1.485       .  S
C439        H444   1.085       .  S
C439        C440   1.355       .  D
C440       C1597   1.480       .  S
C445        C446   1.540       .  S
C445        C451   1.527       .  S
C445        C449   1.532       .  S
C445       C1593   1.518       .  S
C446        H453   1.086       .  S
C446        C447   1.371       .  D
C447        C448   1.553       .  S
C447       C1638   1.497       .  S
C448        C452   1.540       .  S
C448        C450   1.548       .  S
C448        H454   1.105       .  S
C449        H455   1.084       .  S
C449        C450   1.373       .  D
C450       C1577   1.489       .  S
C451        H456   1.082       .  S
C451        C452   1.353       .  D
C452       C1581   1.482       .  S
C457        C458   1.547       .  S
C457        C463   1.534       .  S
C457        C461   1.532       .  S
C457       C1573   1.512       .  S
C458        H465   1.084       .  S
C458        C459   1.375       .  D
C459        C460   1.538       .  S
C459       C1569   1.487       .  S
C460        C464   1.532       .  S
C460        C462   1.546       .  S
C460        H466   1.110       .  S
C461        H467   1.087       .  S
C461        C462   1.360       .  D
C462       C1614   1.480       .  S
C463        H468   1.084       .  S
C463        C464   1.366       .  D
C464       C1582   1.490       .  S
C469        C470   1.544       .  S
C469        C475   1.530       .  S
C469        C473   1.533       .  S
C469       C1574   1.514   1_545  S
C470        H477   1.086       .  S
C470        C471   1.368       .  D
C471        C472   1.549       .  S
C471       C1566   1.492       .  S
C472        C476   1.531       .  S
C472        C474   1.540       .  S
C472        H478   1.108       .  S
C473        H479   1.084       .  S
C473        C474   1.370       .  D
C474       C1562   1.484       .  S
C475        H480   1.084       .  S
C475        C476   1.362       .  D
C476       C1598   1.487       .  S
C481        C482   1.546       .  S
C481        C487   1.530       .  S
C481        C485   1.554       .  S
C481       C1553   1.530   1_545  S
C482        H489   1.085       .  S
C482        C483   1.375       .  D
C483        C484   1.530       .  S
C483       C1549   1.488       .  S
C484        C488   1.528       .  S
C484        C486   1.540       .  S
C484        H490   1.110       .  S
C485        H491   1.083       .  S
C485        C486   1.370       .  D
C486       C1546   1.490       .  S
C487        H492   1.086       .  S
C487        C488   1.360       .  D
C488       C1557   1.477       .  S
C493        C494   1.534       .  S
C493        C499   1.546       .  S
C493        C497   1.555       .  S
C493       C1554   1.525       .  S
C494        H501   1.087       .  S
C494        C495   1.357       .  D
C495        C496   1.533       .  S
C495       C1537   1.474       .  S
C496        C500   1.525       .  S
C496        C498   1.532       .  S
C496        H502   1.107       .  S
C497        H503   1.085       .  S
C497        C498   1.380       .  D
C498       C1626   1.493       .  S
C499        H504   1.085       .  S
C499        C500   1.367       .  D
C500       C1541   1.480       .  S
C505        C506   1.554       .  S
C505        C511   1.543       .  S
C505        C509   1.527       .  S
C505       C1606   1.521       .  S
C506        H513   1.085       .  S
C506        C507   1.375       .  D
C507        C508   1.535       .  S
C507       C1533   1.491       .  S
C508        C512   1.544       .  S
C508        C510   1.535       .  S
C508        H514   1.112       .  S
C509        H515   1.085       .  S
C509        C510   1.363       .  D
C510       C1542   1.487       .  S
C511        H516   1.087       .  S
C511        C512   1.371       .  D
C512       C1529   1.482       .  S
C517        C518   1.535       .  S
C517        C523   1.539       .  S
C517        C521   1.537       .  S
C517       C1525   1.520       .  S
C518        H525   1.086       .  S
C518        C519   1.363       .  D
C519        C520   1.529       .  S
C519       C1558   1.475       .  S
C520        C524   1.540       .  S
C520        C522   1.555       .  S
C520        H526   1.107       .  S
C521        H527   1.086       .  S
C521        C522   1.371       .  D
C522       C1534   1.501   1_545  S
C523        H528   1.085       .  S
C523        C524   1.369       .  D
C524       C1521   1.490       .  S
C529        C530   1.539       .  S
C529        C535   1.533       .  S
C529        C533   1.531       .  S
C529       C1513   1.517   1_455  S
C530        H537   1.086       .  S
C530        C531   1.367       .  D
C531        C532   1.548       .  S
C531       C1509   1.491       .  S
C532        C536   1.535       .  S
C532        C534   1.557       .  S
C532        H538   1.106       .  S
C533        H539   1.086       .  S
C533        C534   1.367       .  D
C534       C1550   1.490       .  S
C535        H540   1.075       .  S
C535        C536   1.356       .  D
C536       C1517   1.486       .  S
C541        C542   1.537       .  S
C541        C547   1.526       .  S
C541        C545   1.538       .  S
C541       C1514   1.517       .  S
C542        H549   1.086       .  S
C542        C543   1.370       .  D
C543        C544   1.549       .  S
C543       C1590   1.487       .  S
C544        C548   1.529       .  S
C544        C546   1.540       .  S
C544        H550   1.107       .  S
C545        H551   1.084       .  S
C545        C546   1.374       .  D
C546       C1501   1.482       .  S
C547        H552   1.077       .  S
C547        C548   1.348       .  D
C548       C1505   1.468       .  S
C553        C554   1.547       .  S
C553        C559   1.533       .  S
C553        C557   1.548       .  S
C553       C1497   1.524       .  S
C554        H561   1.085       .  S
C554        C555   1.369       .  D
C555        C556   1.531       .  S
C555       C1493   1.482       .  S
C556        C560   1.526       .  S
C556        C558   1.533       .  S
C556        H562   1.112       .  S
C557        H563   1.085       .  S
C557        C558   1.376       .  D
C558       C1565   1.481       .  S
C559        H564   1.086       .  S
C559        C560   1.363       .  D
C560       C1506   1.482       .  S
C565        C566   1.528       .  S
C565        C571   1.525       .  S
C565        C569   1.536       .  S
C565       C1490   1.508       .  S
C566        H573   1.087       .  S
C566        C567   1.363       .  D
C567        C568   1.550       .  S
C567       C1526   1.481       .  S
C568        C572   1.557       .  S
C568        C570   1.541       .  S
C568        H574   1.111       .  S
C569        H575   1.087       .  S
C569        C570   1.363       .  D
C570       C1518   1.482       .  S
C571        H576   1.083       .  S
C571        C572   1.373       .  D
C572       C1498   1.500   1_455  S
In577       O579   2.246       .  S
In577       O580   2.234       .  S
In577       O588   2.239       .  S
In577       O582   2.267       .  S
In577       O584   2.251       .  S
In577       O585   2.232       .  S
In577       O586   2.260       .  S
In577       O589   2.259       .  S
C578        O584   1.258       .  A
C578        O586   1.260       .  A
C578       C1477   1.476       .  S
O579        C587   1.261       .  A
O580        C587   1.261       .  A
C581        O588   1.253       .  A
C581        O582   1.260       .  A
C581       C1485   1.470       .  S
C583        O585   1.260       .  A
C583        O589   1.261       .  A
C583       C1502   1.474       .  S
C587       C1481   1.469       .  S
In590       O592   2.260       .  S
In590       O593   2.238       .  S
In590       O601   2.249       .  S
In590       O595   2.257       .  S
In590       O597   2.258       .  S
In590       O598   2.261       .  S
In590       O599   2.235       .  S
In590       O602   2.238       .  S
C591        O597   1.262       .  A
C591        O599   1.257       .  A
C591       C1469   1.469       .  S
O592        C600   1.262       .  A
O593        C600   1.261       .  A
C594        O601   1.259       .  A
C594        O595   1.256       .  A
C594       C1486   1.473       .  S
C596        O598   1.260       .  A
C596        O602   1.260       .  A
C596       C1473   1.475       .  S
C600       C1814   1.476       .  S
In603       O605   2.235       .  S
In603       O606   2.260       .  S
In603       O614   2.252       .  S
In603       O608   2.280       .  S
In603       O610   2.261       .  S
In603       O611   2.229       .  S
In603       O612   2.245       .  S
In603       O615   2.275       .  S
C604        O610   1.261       .  A
C604        O612   1.257       .  A
C604       C1461   1.473       .  S
O605        C613   1.260       .  A
O606        C613   1.263       .  A
C607        O614   1.257       .  A
C607        O608   1.260       .  A
C607       C1465   1.484       .  S
C609        O611   1.258       .  A
C609        O615   1.265       .  A
C609       C1906   1.475       .  S
C613       C1474   1.472       .  S
In616       O618   2.271       .  S
In616       O619   2.244       .  S
In616       O627   2.252       .  S
In616       O621   2.278       .  S
In616       O623   2.259       .  S
In616       O624   2.244       .  S
In616       O625   2.236       .  S
In616       O628   2.233       .  S
C617        O623   1.263       .  A
C617        O625   1.258       .  A
C617       C1454   1.472       .  S
O618        C626   1.264       .  A
O619        C626   1.257       .  A
C620        O627   1.257       .  A
C620        O621   1.260       .  A
C620       C1457   1.483       .  S
C622        O624   1.261       .  A
C622        O628   1.261       .  A
C622       C1482   1.468       .  S
C626       C1586   1.477       .  S
In629       O631   2.244       .  S
In629       O632   2.249       .  S
In629       O640   2.253       .  S
In629       O634   2.286       .  S
In629       O636   2.253       .  S
In629       O637   2.216       .  S
In629       O638   2.266       .  S
In629       O641   2.277       .  S
C630        O636   1.257       .  A
C630        O638   1.261       .  A
C630       C1445   1.479       .  S
O631        C639   1.263       .  A
O632        C639   1.264       .  A
C633        O640   1.255       .  A
C633        O634   1.259       .  A
C633       C1458   1.480       .  S
C635        O637   1.257       .  A
C635        O641   1.263       .  A
C635       C1650   1.475       .  S
C639       C1449   1.476       .  S
In642       O644   2.271       .  S
In642       O645   2.252       .  S
In642       O653   2.247       .  S
In642       O647   2.292       .  S
In642       O649   2.271       .  S
In642       O650   2.257       .  S
In642       O651   2.259       .  S
In642       O654   2.248       .  S
C643        O649   1.260       .  A
C643        O651   1.257       .  A
C643       C1441   1.481       .  S
O644        C652   1.262       .  A
O645        C652   1.260       .  A
C646        O653   1.255       .  A
C646        O647   1.261       .  A
C646       C1466   1.480       .  S
C648        O650   1.261       .  A
C648        O654   1.261       .  A
C648       C1450   1.477       .  S
C652       C1682   1.483       .  S
In655       O657   2.237       .  S
In655       O658   2.253       .  S
In655       O666   2.257       .  S
In655       O660   2.255       .  S
In655       O662   2.262       .  S
In655       O663   2.234       .  S
In655       O664   2.235       .  S
In655       O667   2.258       .  S
C656        O662   1.261       .  A
C656        O664   1.259       .  A
C656       C1453   1.474       .  S
O657        C665   1.258       .  A
O658        C665   1.262       .  A
C659        O666   1.256       .  A
C659        O660   1.258       .  A
C659       C1433   1.474       .  S
C661        O663   1.260       .  A
C661        O667   1.262       .  A
C661       C1561   1.474       .  S
C665       C1438   1.470       .  S
In668       O670   2.258       .  S
In668       O671   2.258       .  S
In668       O679   2.249       .  S
In668       O673   2.260       .  S
In668       O675   2.281       .  S
In668       O676   2.243       .  S
In668       O677   2.212       .  S
In668       O680   2.257       .  S
C669        O675   1.264       .  A
C669        O677   1.258       .  A
C669       C1762   1.470       .  S
O670        C678   1.258       .  A
O671        C678   1.260       .  A
C672        O679   1.256       .  A
C672        O673   1.259       .  A
C672       C1434   1.473       .  S
C674        O676   1.261       .  A
C674        O680   1.263       .  A
C674       C1426   1.476       .  S
C678       C1429   1.477       .  S
In681       O683   2.242       .  S
In681       O684   2.270       .  S
In681       O692   2.277       .  S
In681       O686   2.266       .  S
In681       O688   2.227       .  S
In681       O689   2.251       .  S
In681       O690   2.266       .  S
In681       O693   2.279       .  S
C682        O688   1.260       .  A
C682        O690   1.263       .  A
C682       C1417   1.476       .  S
O683        C691   1.256       .  A
O684        C691   1.262       .  A
C685        O692   1.260       .  A
C685        O686   1.256       .  A
C685       C1421   1.484       .  S
C687        O689   1.259       .  A
C687        O693   1.263       .  A
C687       C1690   1.486       .  S
C691       C1430   1.475       .  S
In694       O696   2.277       .  S
In694       O697   2.223       .  S
In694       O705   2.276       .  S
In694       O699   2.242       .  S
In694       O701   2.256       .  S
In694       O702   2.250       .  S
In694       O703   2.253       .  S
In694       O706   2.234       .  S
C695        O701   1.260       .  A
C695        O703   1.258       .  A
C695       C1478   1.476       .  S
O696        C704   1.262       .  A
O697        C704   1.258       .  A
C698        O705   1.261       .  A
C698        O699   1.255       .  A
C698       C1413   1.475       .  S
C700        O702   1.262       .  A
C700        O706   1.263       .  A
C700       C1437   1.473       .  S
C704       C1494   1.478       .  S
In707       O709   2.246       .  S
In707       O710   2.238       .  S
In707       O718   2.251       .  S
In707       O712   2.279       .  S
In707       O714   2.244       .  S
In707       O715   2.239       .  S
In707       O716   2.252       .  S
In707       O719   2.265       .  S
C708        O714   1.260       .  A
C708        O716   1.265       .  A
C708       C1405   1.477       .  S
O709        C717   1.265       .  A
O710        C717   1.258       .  A
C711        O718   1.258       .  A
C711        O712   1.262       .  A
C711       C1422   1.482       .  S
C713        O715   1.258       .  A
C713        O719   1.262       .  A
C713       C1409   1.477       .  S
C717       C1898   1.471       .  S
In720       O722   2.252       .  S
In720       O723   2.252       .  S
In720       O731   2.272       .  S
In720       O725   2.253       .  S
In720       O727   2.252       .  S
In720       O728   2.237       .  S
In720       O729   2.253       .  S
In720       O732   2.280       .  S
C721        O727   1.260       .  A
C721        O729   1.260       .  A
C721       C1401   1.475       .  S
O722        C730   1.260       .  A
O723        C730   1.261       .  A
C724        O731   1.258       .  A
C724        O725   1.257       .  A
C724       C1414   1.479       .  S
C726        O728   1.259       .  A
C726        O732   1.262       .  A
C726       C1922   1.484       .  S
C730       C1410   1.475       .  S
In733       O735   2.274       .  S
In733       O736   2.244       .  S
In733       O744   2.241       .  S
In733       O738   2.284       .  S
In733       O740   2.266       .  S
In733       O741   2.249       .  S
In733       O742   2.251       .  S
In733       O745   2.251       .  S
C734        O740   1.260       .  A
C734        O742   1.257       .  A
C734       C1389   1.477       .  S
O735        C743   1.262       .  A
O736        C743   1.261       .  A
C737        O744   1.254       .  A
C737        O738   1.260       .  A
C737       C1397   1.476       .  S
C739        O741   1.260       .  A
C739        O745   1.260       .  A
C739       C1393   1.472       .  S
C743       C1750   1.485       .  S
In746       O748   2.238       .  S
In746       O749   2.270       .  S
In746       O757   2.248       .  S
In746       O751   2.290       .  S
In746       O753   2.259       .  S
In746       O754   2.270       .  S
In746       O755   2.245       .  S
In746       O758   2.259       .  S
C747        O753   1.262       .  A
C747        O755   1.259       .  A
C747       C1406   1.476       .  S
O748        C756   1.257       .  A
O749        C756   1.261       .  A
C750        O757   1.253       .  A
C750        O751   1.258       .  A
C750       C1398   1.482       .  S
C752        O754   1.263       .  A
C752        O758   1.259       .  A
C752       C1890   1.484       .  S
C756       C1385   1.474       .  S
In759       O761   2.277       .  S
In759       O762   2.197       .  S
In759       O770   2.242       .  S
In759       O764   2.254       .  S
In759       O766   2.246       .  S
In759       O767   2.246       .  S
In759       O768   2.260       .  S
In759       O771   2.248       .  S
C760        O766   1.259       .  A
C760        O768   1.261       .  A
C760       C1402   1.477       .  S
O761        C769   1.262       .  A
O762        C769   1.260       .  A
C763        O770   1.255       .  A
C763        O764   1.259       .  A
C763       C1381   1.469       .  S
C765        O767   1.260       .  A
C765        O771   1.262       .  A
C765       C1386   1.472       .  S
C769       C1954   1.475       .  S
In772       O774   2.261       .  S
In772       O775   2.242       .  S
In772       O783   2.247       .  S
In772       O777   2.251       .  S
In772       O779   2.234       .  S
In772       O780   2.197       .  S
In772       O781   2.267       .  S
In772       O784   2.275       .  S
C773        O779   1.259       .  A
C773        O781   1.263       .  A
C773       C1373   1.478       .  S
O774        C782   1.264       .  A
O775        C782   1.259       .  A
C776        O783   1.258       .  A
C776        O777   1.256       .  A
C776       C1382   1.470       .  S
C778        O780   1.259       .  A
C778        O784   1.261       .  A
C778       C1610   1.472       .  S
C782       C1377   1.476       .  S
In785       O787   2.259       .  S
In785       O788   2.234       .  S
In785       O796   2.254       .  S
In785       O790   2.283       .  S
In785       O792   2.258       .  S
In785       O793   2.236       .  S
In785       O794   2.259       .  S
In785       O797   2.264       .  S
C786        O792   1.260       .  A
C786        O794   1.262       .  A
C786       C1365   1.481       .  S
O787        C795   1.262       .  A
O788        C795   1.260       .  A
C789        O796   1.255       .  A
C789        O790   1.260       .  A
C789       C1369   1.480       .  S
C791        O793   1.259       .  A
C791        O797   1.263       .  A
C791       C1770   1.476       .  S
C795       C1394   1.474       .  S
In798       O800   2.269       .  S
In798       O801   2.245       .  S
In798       O809   2.268       .  S
In798       O803   2.271       .  S
In798       O805   2.249       .  S
In798       O806   2.259       .  S
In798       O807   2.263       .  S
In798       O810   2.253       .  S
C799        O805   1.259       .  A
C799        O807   1.262       .  A
C799       C1361   1.476       .  S
O800        C808   1.263       .  A
O801        C808   1.261       .  A
C802        O809   1.258       .  A
C802        O803   1.257       .  A
C802       C1370   1.482       .  S
C804        O806   1.261       .  A
C804        O810   1.258       .  A
C804       C1378   1.477       .  S
C808       C1570   1.481       .  S
In811       O813   2.251       .  S
In811       O814   2.241       .  S
In811       O822   2.242       .  S
In811       O816   2.268       .  S
In811       O818   2.257       .  S
In811       O819   2.249       .  S
In811       O820   2.240       .  S
In811       O823   2.251       .  S
C812        O818   1.260       .  A
C812        O820   1.260       .  A
C812       C1462   1.475       .  S
O813        C821   1.261       .  A
O814        C821   1.261       .  A
C815        O822   1.254       .  A
C815        O816   1.259       .  A
C815       C1353   1.471       .  S
C817        O819   1.259       .  A
C817        O823   1.259       .  A
C817       C1357   1.472       .  S
C821       C1882   1.472       .  S
In824       O826   2.249       .  S
In824       O827   2.257       .  S
In824       O835   2.252       .  S
In824       O829   2.262       .  S
In824       O831   2.261       .  S
In824       O832   2.216       .  S
In824       O833   2.242       .  S
In824       O836   2.259       .  S
C825        O831   1.260       .  A
C825        O833   1.260       .  A
C825       C1345   1.476       .  S
O826        C834   1.258       .  A
O827        C834   1.259       .  A
C828        O835   1.258       .  A
C828        O829   1.256       .  A
C828       C1354   1.474       .  S
C830        O832   1.261       .  A
C830        O836   1.265       .  A
C830       C1738   1.473       .  S
C834       C1349   1.472       .  S
In837       O839   2.255       .  S
In837       O840   2.243       .  S
In837       O848   2.228       .  S
In837       O842   2.263       .  S
In837       O844   2.250       .  S
In837       O845   2.225       .  S
In837       O846   2.231       .  S
In837       O849   2.252       .  S
C838        O844   1.260       .  A
C838        O846   1.262       .  A
C838       C1470   1.472       .  S
O839        C847   1.259       .  A
O840        C847   1.259       .  A
C841        O848   1.256       .  A
C841        O842   1.258       .  A
C841       C1341   1.470       .  S
C843        O845   1.260       .  A
C843        O849   1.261       .  A
C843       C1830   1.469       .  S
C847       C1358   1.473       .  S
In850       O852   2.286       .  S
In850       O853   2.266       .  S
In850       O861   2.259       .  S
In850       O855   2.274       .  S
In850       O857   2.265       .  S
In850       O858   2.262       .  S
In850       O859   2.223       .  S
In850       O862   2.230       .  S
C851        O857   1.261       .  A
C851        O859   1.255       .  A
C851       C1333   1.464       .  S
O852        C860   1.263       .  A
O853        C860   1.259       .  A
C854        O861   1.257       .  A
C854        O855   1.258       .  A
C854       C1337   1.482       .  S
C856        O858   1.265       .  A
C856        O862   1.261       .  A
C856       C1350   1.476       .  S
C860       C1654   1.492       .  S
In863       O865   2.261       .  S
In863       O866   2.238       .  S
In863       O874   2.232       .  S
In863       O868   2.263       .  S
In863       O870   2.241       .  S
In863       O871   2.251       .  S
In863       O872   2.260       .  S
In863       O875   2.246       .  S
C864        O870   1.260       .  A
C864        O872   1.262       .  A
C864       C1374   1.474       .  S
O865        C873   1.260       .  A
O866        C873   1.261       .  A
C867        O874   1.253       .  A
C867        O868   1.259       .  A
C867       C1342   1.465       .  S
C869        O871   1.258       .  A
C869        O875   1.259       .  A
C869       C1329   1.469       .  S
C873       C1634   1.477       .  S
In876       O878   2.244       .  S
In876       O879   2.238       .  S
In876       O887   2.251       .  S
In876       O881   2.282       .  S
In876       O883   2.250       .  S
In876       O884   2.254       .  S
In876       O885   2.267       .  S
In876       O888   2.253       .  S
C877        O883   1.259       .  A
C877        O885   1.260       .  A
C877       C1362   1.479       .  S
O878        C886   1.260       .  A
O879        C886   1.263       .  A
C880        O887   1.255       .  A
C880        O881   1.260       .  A
C880       C1338   1.479       .  S
C882        O884   1.259       .  A
C882        O888   1.260       .  A
C882       C1578   1.475       .  S
C886       C1330   1.469       .  S
In889       O891   2.235       .  S
In889       O892   2.270       .  S
In889       O900   2.280       .  S
In889       O894   2.255       .  S
In889       O896   2.268       .  S
In889       O897   2.230       .  S
In889       O898   2.240       .  S
In889       O901   2.277       .  S
C890        O896   1.262       .  A
C890        O898   1.259       .  A
C890       C1317   1.479       .  S
O891        C899   1.256       .  A
O892        C899   1.262       .  A
C893        O900   1.261       .  A
C893        O894   1.257       .  A
C893       C1321   1.482       .  S
C895        O897   1.257       .  A
C895        O901   1.265       .  A
C895       C1942   1.475       .  S
C899       C1325   1.472       .  S
In902       O904   2.273       .  S
In902       O905   2.214       .  S
In902       O913   2.263       .  S
In902       O907   2.262       .  S
In902       O909   2.261       .  S
In902       O910   2.254       .  S
In902       O911   2.242       .  S
In902       O914   2.249       .  S
C903        O909   1.261       .  A
C903        O911   1.263       .  A
C903       C1309   1.481       .  S
O904        C912   1.267       .  A
O905        C912   1.256       .  A
C906        O913   1.261       .  A
C906        O907   1.261       .  A
C906       C1322   1.484       .  S
C908        O910   1.260       .  A
C908        O914   1.262       .  A
C908       C1313   1.477       .  S
C912       C1601   1.470       .  S
In915       O917   2.246       .  S
In915       O918   2.273       .  S
In915       O926   2.267       .  S
In915       O920   2.263       .  S
In915       O922   2.257       .  S
In915       O923   2.306       .  S
In915       O924   2.250       .  S
In915       O927   2.227       .  S
C916        O922   1.260       .  A
C916        O924   1.261       .  A
C916       C1301   1.476       .  S
O917        C925   1.256       .  A
O918        C925   1.261       .  A
C919        O926   1.261       .  A
C919        O920   1.258       .  A
C919       C1305   1.483       .  S
C921        O923   1.262       .  A
C921        O927   1.259       .  A
C921       C1530   1.479       .  S
C925       C1314   1.476       .  S
In928       O930   2.262       .  S
In928       O931   2.245       .  S
In928       O939   2.271       .  S
In928       O933   2.252       .  S
In928       O935   2.266       .  S
In928       O936   2.263       .  S
In928       O937   2.249       .  S
In928       O940   2.231       .  S
C929        O935   1.258       .  A
C929        O937   1.258       .  A
C929       C1293   1.476       .  S
O930        C938   1.263       .  A
O931        C938   1.261       .  A
C932        O939   1.260       .  A
C932        O933   1.255       .  A
C932       C1297   1.476       .  S
C934        O936   1.262       .  A
C934        O940   1.260       .  A
C934       C1326   1.476       .  S
C938       C1869   1.480       .  S
In941       O943   2.289       .  S
In941       O944   2.227       .  S
In941       O952   2.248       .  S
In941       O946   2.291       .  S
In941       O948   2.265       .  S
In941       O949   2.230       .  S
In941       O950   2.246       .  S
In941       O953   2.251       .  S
C942        O948   1.263       .  A
C942        O950   1.260       .  A
C942       C1366   1.480       .  S
O943        C951   1.264       .  A
O944        C951   1.254       .  A
C945        O952   1.253       .  A
C945        O946   1.261       .  A
C945       C1306   1.480       .  S
C947        O949   1.262       .  A
C947        O953   1.261       .  A
C947       C1289   1.471       .  S
C951       C1794   1.474       .  S
In954       O956   2.257       .  S
In954       O957   2.247       .  S
In954       O965   2.254       .  S
In954       O959   2.255       .  S
In954       O961   2.267       .  S
In954       O962   2.251       .  S
In954       O963   2.236       .  S
In954       O966   2.240       .  S
C955        O961   1.262       .  A
C955        O963   1.257       .  A
C955       C1730   1.471       .  S
O956        C964   1.262       .  A
O957        C964   1.261       .  A
C958        O965   1.260       .  A
C958        O959   1.258       .  A
C958       C1298   1.477       .  S
C960        O962   1.260       .  A
C960        O966   1.257       .  A
C960       C1290   1.469       .  S
C964       C1390   1.478       .  S
In967       O969   2.226       .  S
In967       O970   2.237       .  S
In967       O978   2.256       .  S
In967       O972   2.240       .  S
In967       O974   2.258       .  S
In967       O975   2.238       .  S
In967       O976   2.212       .  S
In967       O979   2.257       .  S
C968        O974   1.261       .  A
C968        O976   1.260       .  A
C968       C1334   1.471       .  S
O969        C977   1.261       .  A
O970        C977   1.261       .  A
C971        O978   1.262       .  A
C971        O972   1.256       .  A
C971       C1285   1.473       .  S
C973        O975   1.259       .  A
C973        O979   1.265       .  A
C973       C1661   1.476       .  S
C977       C1281   1.465       .  S
In980       O982   2.222       .  S
In980       O983   2.226       .  S
In980       O991   2.232       .  S
In980       O985   2.266       .  S
In980       O987   2.265       .  S
In980       O988   2.237       .  S
In980       O989   2.242       .  S
In980       O992   2.258       .  S
C981        O987   1.262       .  A
C981        O989   1.259       .  A
C981       C1302   1.478       .  S
O982        C990   1.263       .  A
O983        C990   1.259       .  A
C984        O991   1.255       .  A
C984        O985   1.264       .  A
C984       C1286   1.473       .  S
C986        O988   1.256       .  A
C986        O992   1.264       .  A
C986       C1277   1.473       .  S
C990       C1538   1.458       .  S
In993       O995   2.241       .  S
In993       O996   2.259       .  S
In993      O1004   2.272       .  S
In993       O998   2.283       .  S
In993      O1000   2.295       .  S
In993      O1001   2.265       .  S
In993      O1002   2.230       .  S
In993      O1005   2.281       .  S
C994       O1000   1.263       .  A
C994       O1002   1.253       .  A
C994       C1310   1.476       .  S
O995       C1003   1.257       .  A
O996       C1003   1.264       .  A
C997       O1004   1.256       .  A
C997        O998   1.258       .  A
C997       C1273   1.486       .  S
C999       O1001   1.259       .  A
C999       O1005   1.264       .  A
C999       C1622   1.490       .  S
C1003      C1278   1.474       .  S
In1006     O1008   2.276       .  S
In1006     O1009   2.221       .  S
In1006     O1017   2.242       .  S
In1006     O1011   2.274       .  S
In1006     O1013   2.255       .  S
In1006     O1014   2.220       .  S
In1006     O1015   2.234       .  S
In1006     O1018   2.247       .  S
C1007      O1013   1.264       .  A
C1007      O1015   1.261       .  A
C1007      C1346   1.474       .  S
O1008      C1016   1.265       .  A
O1009      C1016   1.254       .  A
C1010      O1017   1.253       .  A
C1010      O1011   1.259       .  A
C1010      C1269   1.473       .  S
C1012      O1014   1.260       .  A
C1012      O1018   1.261       .  A
C1012      C1282   1.466       .  S
C1016      C1722   1.468       .  S
In1019     O1021   2.240       .  S
In1019     O1022   2.260       .  S
In1019     O1030   2.252       .  S
In1019     O1024   2.262       .  S
In1019     O1026   2.250       .  S
In1019     O1027   2.239       .  S
In1019     O1028   2.250       .  S
In1019     O1031   2.269       .  S
C1020      O1026   1.261       .  A
C1020      O1028   1.260       .  A
C1020      C1261   1.475       .  S
O1021      C1029   1.258       .  A
O1022      C1029   1.262       .  A
C1023      O1030   1.258       .  A
C1023      O1024   1.257       .  A
C1023      C1270   1.476       .  S
C1025      O1027   1.260       .  A
C1025      O1031   1.262       .  A
C1025      C1858   1.479       .  S
C1029      C1265   1.472       .  S
In1032     O1034   2.299       .  S
In1032     O1035   2.217       .  S
In1032     O1043   2.285       .  S
In1032     O1037   2.252       .  S
In1032     O1039   2.264       .  S
In1032     O1040   2.255       .  S
In1032     O1041   2.241       .  S
In1032     O1044   2.245       .  S
C1033      O1039   1.265       .  A
C1033      O1041   1.262       .  A
C1033      C1257   1.482       .  S
O1034      C1042   1.268       .  A
O1035      C1042   1.257       .  A
C1036      O1043   1.264       .  A
C1036      O1037   1.257       .  A
C1036      C1274   1.485       .  S
C1038      O1040   1.258       .  A
C1038      O1044   1.260       .  A
C1038      C1266   1.474       .  S
C1042      C1822   1.478       .  S
In1045     O1047   2.246       .  S
In1045     O1048   2.274       .  S
In1045     O1056   2.272       .  S
In1045     O1050   2.262       .  S
In1045     O1052   2.253       .  S
In1045     O1053   2.281       .  S
In1045     O1054   2.248       .  S
In1045     O1057   2.228       .  S
C1046      O1052   1.260       .  A
C1046      O1054   1.260       .  A
C1046      C1262   1.475       .  S
O1047      C1055   1.258       .  A
O1048      C1055   1.261       .  A
C1049      O1056   1.258       .  A
C1049      O1050   1.258       .  A
C1049      C1253   1.482       .  S
C1051      O1053   1.263       .  A
C1051      O1057   1.255       .  A
C1051      C1249   1.473       .  S
C1055      C1846   1.481       .  S
In1058     O1060   2.247       .  S
In1058     O1061   2.247       .  S
In1058     O1069   2.278       .  S
In1058     O1063   2.257       .  S
In1058     O1065   2.264       .  S
In1058     O1066   2.238       .  S
In1058     O1067   2.270       .  S
In1058     O1070   2.257       .  S
C1059      O1065   1.257       .  A
C1059      O1067   1.259       .  A
C1059      C1442   1.481       .  S
O1060      C1068   1.262       .  A
O1061      C1068   1.260       .  A
C1062      O1069   1.259       .  A
C1062      O1063   1.256       .  A
C1062      C1254   1.480       .  S
C1064      O1066   1.260       .  A
C1064      O1070   1.263       .  A
C1064      C1705   1.475       .  S
C1068      C1245   1.473       .  S
In1071     O1073   2.221       .  S
In1071     O1074   2.284       .  S
In1071     O1082   2.248       .  S
In1071     O1076   2.275       .  S
In1071     O1078   2.257       .  S
In1071     O1079   2.250       .  S
In1071     O1080   2.246       .  S
In1071     O1083   2.259       .  S
C1072      O1078   1.264       .  A
C1072      O1080   1.262       .  A
C1072      C1446   1.479       .  S
O1073      C1081   1.257       .  A
O1074      C1081   1.263       .  A
C1075      O1082   1.255       .  A
C1075      O1076   1.259       .  A
C1075      C1241   1.475       .  S
C1077      O1079   1.258       .  A
C1077      O1083   1.258       .  A
C1077      C1246   1.474       .  S
C1081      C1670   1.471       .  S
In1084     O1086   2.244       .  S
In1084     O1087   2.235       .  S
In1084     O1095   2.251       .  S
In1084     O1089   2.276       .  S
In1084     O1091   2.274       .  S
In1084     O1092   2.225       .  S
In1084     O1093   2.243       .  S
In1084     O1096   2.288       .  S
C1085      O1091   1.263       .  A
C1085      O1093   1.257       .  A
C1085      C1233   1.477       .  S
O1086      C1094   1.261       .  A
O1087      C1094   1.262       .  A
C1088      O1095   1.255       .  A
C1088      O1089   1.257       .  A
C1088      C1242   1.479       .  S
C1090      O1092   1.256       .  A
C1090      O1096   1.265       .  A
C1090      C1545   1.475       .  S
C1094      C1237   1.469       .  S
In1097     O1099   2.235       .  S
In1097     O1100   2.272       .  S
In1097     O1108   2.263       .  S
In1097     O1102   2.262       .  S
In1097     O1104   2.275       .  S
In1097     O1105   2.225       .  S
In1097     O1106   2.255       .  S
In1097     O1109   2.260       .  S
C1098      O1104   1.259       .  A
C1098      O1106   1.257       .  A
C1098      C1258   1.480       .  S
O1099      C1107   1.260       .  A
O1100      C1107   1.262       .  A
C1101      O1108   1.259       .  A
C1101      O1102   1.257       .  A
C1101      C1229   1.478       .  S
C1103      O1105   1.258       .  A
C1103      O1109   1.262       .  A
C1103      C1810   1.471       .  S
C1107      C1250   1.479       .  S
In1110     O1112   2.275       .  S
In1110     O1113   2.246       .  S
In1110     O1121   2.246       .  S
In1110     O1115   2.264       .  S
In1110     O1117   2.260       .  S
In1110     O1118   2.246       .  S
In1110     O1119   2.241       .  S
In1110     O1122   2.238       .  S
C1111      O1117   1.263       .  A
C1111      O1119   1.259       .  A
C1111      C1225   1.476       .  S
O1112      C1120   1.264       .  A
O1113      C1120   1.259       .  A
C1114      O1121   1.258       .  A
C1114      O1115   1.261       .  A
C1114      C1230   1.478       .  S
C1116      O1118   1.259       .  A
C1116      O1122   1.261       .  A
C1116      C1238   1.469       .  S
C1120      C1510   1.480       .  S
In1123     O1125   2.231       .  S
In1123     O1126   2.264       .  S
In1123     O1134   2.242       .  S
In1123     O1128   2.277       .  S
In1123     O1130   2.265       .  S
In1123     O1131   2.250       .  S
In1123     O1132   2.241       .  S
In1123     O1135   2.258       .  S
C1124      O1130   1.261       .  A
C1124      O1132   1.257       .  A
C1124      C1294   1.474       .  S
O1125      C1133   1.257       .  A
O1126      C1133   1.263       .  A
C1127      O1134   1.258       .  A
C1127      O1128   1.259       .  A
C1127      C1221   1.480       .  S
C1129      O1131   1.260       .  A
C1129      O1135   1.261       .  A
C1129      C1842   1.477       .  S
C1133      C1217   1.470       .  S
In1136     O1138   2.289       .  S
In1136     O1139   2.216       .  S
In1136     O1147   2.232       .  S
In1136     O1141   2.286       .  S
In1136     O1143   2.233       .  S
In1136     O1144   2.256       .  S
In1136     O1145   2.261       .  S
In1136     O1148   2.243       .  S
C1137      O1143   1.259       .  A
C1137      O1145   1.262       .  A
C1137      C1418   1.472       .  S
O1138      C1146   1.266       .  A
O1139      C1146   1.256       .  A
C1140      O1147   1.255       .  A
C1140      O1141   1.262       .  A
C1140      C1222   1.474       .  S
C1142      O1144   1.261       .  A
C1142      O1148   1.260       .  A
C1142      C1213   1.475       .  S
C1146      C1698   1.474       .  S
In1149     O1151   2.259       .  S
In1149     O1152   2.256       .  S
In1149     O1160   2.266       .  S
In1149     O1154   2.259       .  S
In1149     O1156   2.253       .  S
In1149     O1157   2.244       .  S
In1149     O1158   2.257       .  S
In1149     O1161   2.232       .  S
C1150      O1156   1.259       .  A
C1150      O1158   1.262       .  A
C1150      C1425   1.477       .  S
O1151      C1159   1.260       .  A
O1152      C1159   1.259       .  A
C1153      O1160   1.257       .  A
C1153      O1154   1.252       .  A
C1153      C1209   1.475       .  S
C1155      O1157   1.260       .  A
C1155      O1161   1.261       .  A
C1155      C1782   1.465       .  S
C1159      C1214   1.475       .  S
In1162     O1164   2.265       .  S
In1162     O1165   2.234       .  S
In1162     O1173   2.263       .  S
In1162     O1167   2.254       .  S
In1162     O1169   2.271       .  S
In1162     O1170   2.258       .  S
In1162     O1171   2.253       .  S
In1162     O1174   2.237       .  S
C1163      O1169   1.259       .  A
C1163      O1171   1.257       .  A
C1163      C1318   1.477       .  S
O1164      C1172   1.262       .  A
O1165      C1172   1.261       .  A
C1166      O1173   1.260       .  A
C1166      O1167   1.257       .  A
C1166      C1205   1.476       .  S
C1168      O1170   1.261       .  A
C1168      O1174   1.261       .  A
C1168      C1218   1.474       .  S
C1172      C1930   1.479       .  S
In1175     O1177   2.234       .  S
In1175     O1178   2.274       .  S
In1175     O1186   2.259       .  S
In1175     O1180   2.266       .  S
In1175     O1182   2.247       .  S
In1175     O1183   2.260       .  S
In1175     O1184   2.248       .  S
In1175     O1187   2.227       .  S
C1176      O1182   1.260       .  A
C1176      O1184   1.264       .  A
C1176      C1226   1.476       .  S
O1177      C1185   1.255       .  A
O1178      C1185   1.264       .  A
C1179      O1186   1.256       .  A
C1179      O1180   1.259       .  A
C1179      C1206   1.477       .  S
C1181      O1183   1.259       .  A
C1181      O1187   1.258       .  A
C1181      C1489   1.470       .  S
C1185      C1202   1.473       .  S
In1188     O1190   2.251       .  S
In1188     O1191   2.248       .  S
In1188     O1199   2.241       .  S
In1188     O1193   2.273       .  S
In1188     O1195   2.267       .  S
In1188     O1196   2.250       .  S
In1188     O1197   2.261       .  S
In1188     O1200   2.253       .  S
C1189      O1195   1.258       .  A
C1189      O1197   1.258       .  A
C1189      C1522   1.479       .  S
O1190      C1198   1.259       .  A
O1191      C1198   1.263       .  A
C1192      O1199   1.254       .  A
C1192      O1193   1.261       .  A
C1192      C1210   1.474       .  S
C1194      O1196   1.264       .  A
C1194      O1200   1.262       .  A
C1194      C1234   1.479       .  S
C1198      C1201   1.476       .  S
C1201      H1203   1.086       .  S
C1201      C1202   1.340       .  D
C1202      H1204   1.087       .  S
C1205      H1207   1.087       .  S
C1205      C1206   1.343       .  D
C1206      H1208   1.087       .  S
C1209      H1211   1.087       .  S
C1209      C1210   1.340       .  D
C1210      H1212   1.087       .  S
C1213      H1215   1.087       .  S
C1213      C1214   1.345       .  D
C1214      H1216   1.086       .  S
C1217      H1219   1.087       .  S
C1217      C1218   1.341       .  D
C1218      H1220   1.086       .  S
C1221      H1223   1.086       .  S
C1221      C1222   1.343       .  D
C1222      H1224   1.087       .  S
C1225      H1227   1.087       .  S
C1225      C1226   1.343       .  D
C1226      H1228   1.086       .  S
C1229      H1231   1.086       .  S
C1229      C1230   1.347       .  D
C1230      H1232   1.086       .  S
C1233      H1235   1.087       .  S
C1233      C1234   1.342       .  D
C1234      H1236   1.086       .  S
C1237      H1239   1.087       .  S
C1237      C1238   1.341       .  D
C1238      H1240   1.087       .  S
C1241      H1243   1.087       .  S
C1241      C1242   1.345       .  D
C1242      H1244   1.086       .  S
C1245      H1247   1.087       .  S
C1245      C1246   1.342       .  D
C1246      H1248   1.086       .  S
C1249      H1251   1.087       .  S
C1249      C1250   1.343       .  D
C1250      H1252   1.086       .  S
C1253      H1255   1.086       .  S
C1253      C1254   1.346       .  D
C1254      H1256   1.087       .  S
C1257      H1259   1.086       .  S
C1257      C1258   1.346       .  D
C1258      H1260   1.087       .  S
C1261      H1263   1.087       .  S
C1261      C1262   1.344       .  D
C1262      H1264   1.087       .  S
C1265      H1267   1.087       .  S
C1265      C1266   1.342       .  D
C1266      H1268   1.086       .  S
C1269      H1271   1.087       .  S
C1269      C1270   1.341       .  D
C1270      H1272   1.086       .  S
C1273      H1275   1.086       .  S
C1273      C1274   1.346       .  D
C1274      H1276   1.087       .  S
C1277      H1279   1.087       .  S
C1277      C1278   1.339       .  D
C1278      H1280   1.087       .  S
C1281      H1283   1.087       .  S
C1281      C1282   1.341       .  D
C1282      H1284   1.087       .  S
C1285      H1287   1.087       .  S
C1285      C1286   1.338       .  D
C1286      H1288   1.087       .  S
C1289      H1291   1.087       .  S
C1289      C1290   1.341       .  D
C1290      H1292   1.087       .  S
C1293      H1295   1.086       .  S
C1293      C1294   1.342       .  D
C1294      H1296   1.087       .  S
C1297      H1299   1.087       .  S
C1297      C1298   1.343       .  D
C1298      H1300   1.086       .  S
C1301      H1303   1.087       .  S
C1301      C1302   1.348       .  D
C1302      H1304   1.086       .  S
C1305      H1307   1.086       .  S
C1305      C1306   1.343       .  D
C1306      H1308   1.087       .  S
C1309      H1311   1.086       .  S
C1309      C1310   1.342       .  D
C1310      H1312   1.087       .  S
C1313      H1315   1.086       .  S
C1313      C1314   1.343       .  D
C1314      H1316   1.087       .  S
C1317      H1319   1.086       .  S
C1317      C1318   1.346       .  D
C1318      H1320   1.087       .  S
C1321      H1323   1.087       .  S
C1321      C1322   1.346       .  D
C1322      H1324   1.086       .  S
C1325      H1327   1.087       .  S
C1325      C1326   1.343       .  D
C1326      H1328   1.086       .  S
C1329      H1331   1.087       .  S
C1329      C1330   1.340       .  D
C1330      H1332   1.087       .  S
C1333      H1335   1.087       .  S
C1333      C1334   1.340       .  D
C1334      H1336   1.086       .  S
C1337      H1339   1.086       .  S
C1337      C1338   1.345       .  D
C1338      H1340   1.087       .  S
C1341      H1343   1.086       .  S
C1341      C1342   1.340       .  D
C1342      H1344   1.087       .  S
C1345      H1347   1.086       .  S
C1345      C1346   1.343       .  D
C1346      H1348   1.087       .  S
C1349      H1351   1.087       .  S
C1349      C1350   1.346       .  D
C1350      H1352   1.087       .  S
C1353      H1355   1.087       .  S
C1353      C1354   1.341       .  D
C1354      H1356   1.086       .  S
C1357      H1359   1.087       .  S
C1357      C1358   1.343       .  D
C1358      H1360   1.087       .  S
C1361      H1363   1.087       .  S
C1361      C1362   1.345       .  D
C1362      H1364   1.086       .  S
C1365      H1367   1.086       .  S
C1365      C1366   1.344       .  D
C1366      H1368   1.087       .  S
C1369      H1371   1.087       .  S
C1369      C1370   1.344       .  D
C1370      H1372   1.086       .  S
C1373      H1375   1.086       .  S
C1373      C1374   1.346       .  D
C1374      H1376   1.087       .  S
C1377      H1379   1.087       .  S
C1377      C1378   1.342       .  D
C1378      H1380   1.086       .  S
C1381      H1383   1.087       .  S
C1381      C1382   1.340       .  D
C1382      H1384   1.087       .  S
C1385      H1387   1.086       .  S
C1385      C1386   1.345       .  D
C1386      H1388   1.087       .  S
C1389      H1391   1.087       .  S
C1389      C1390   1.344       .  D
C1390      H1392   1.086       .  S
C1393      H1395   1.087       .  S
C1393      C1394   1.344       .  D
C1394      H1396   1.086       .  S
C1397      H1399   1.087       .  S
C1397      C1398   1.346       .  D
C1398      H1400   1.086       .  S
C1401      H1403   1.087       .  S
C1401      C1402   1.345       .  D
C1402      H1404   1.086       .  S
C1405      H1407   1.087       .  S
C1405      C1406   1.342       .  D
C1406      H1408   1.087       .  S
C1409      H1411   1.086       .  S
C1409      C1410   1.347       .  D
C1410      H1412   1.087       .  S
C1413      H1415   1.087       .  S
C1413      C1414   1.343       .  D
C1414      H1416   1.086       .  S
C1417      H1419   1.086       .  S
C1417      C1418   1.344       .  D
C1418      H1420   1.087       .  S
C1421      H1423   1.086       .  S
C1421      C1422   1.344       .  D
C1422      H1424   1.086       .  S
C1425      H1427   1.087       .  S
C1425      C1426   1.344       .  D
C1426      H1428   1.087       .  S
C1429      H1431   1.086       .  S
C1429      C1430   1.342       .  D
C1430      H1432   1.087       .  S
C1433      H1435   1.087       .  S
C1433      C1434   1.342       .  D
C1434      H1436   1.087       .  S
C1437      H1439   1.086       .  S
C1437      C1438   1.341       .  D
C1438      H1440   1.087       .  S
C1441      H1443   1.087       .  S
C1441      C1442   1.345       .  D
C1442      H1444   1.086       .  S
C1445      H1447   1.087       .  S
C1445      C1446   1.344       .  D
C1446      H1448   1.087       .  S
C1449      H1451   1.087       .  S
C1449      C1450   1.344       .  D
C1450      H1452   1.086       .  S
C1453      H1455   1.086       .  S
C1453      C1454   1.343       .  D
C1454      H1456   1.087       .  S
C1457      H1459   1.086       .  S
C1457      C1458   1.346       .  D
C1458      H1460   1.087       .  S
C1461      H1463   1.087       .  S
C1461      C1462   1.343       .  D
C1462      H1464   1.086       .  S
C1465      H1467   1.086       .  S
C1465      C1466   1.346       .  D
C1466      H1468   1.087       .  S
C1469      H1471   1.087       .  S
C1469      C1470   1.341       .  D
C1470      H1472   1.087       .  S
C1473      H1475   1.086       .  S
C1473      C1474   1.343       .  D
C1474      H1476   1.087       .  S
C1477      H1479   1.087       .  S
C1477      C1478   1.344       .  D
C1478      H1480   1.087       .  S
C1481      H1483   1.087       .  S
C1481      C1482   1.342       .  D
C1482      H1484   1.087       .  S
C1485      H1487   1.087       .  S
C1485      C1486   1.340       .  D
C1486      H1488   1.086       .  S
C1489      H1491   1.086       .  S
C1489      C1490   1.343       .  D
C1490      H1492   1.088       .  S
C1493      H1495   1.087       .  S
C1493      C1494   1.345       .  D
C1494      H1496   1.084       .  S
C1497      H1499   1.084       .  S
C1497      C1498   1.356       .  D
C1498      H1500   1.086       .  S
C1501      H1503   1.087       .  S
C1501      C1502   1.344       .  D
C1502      H1504   1.084       .  S
C1505      H1507   1.087       .  S
C1505      C1506   1.339       .  D
C1506      H1508   1.086       .  S
C1509      H1511   1.087       .  S
C1509      C1510   1.345       .  D
C1510      H1512   1.085       .  S
C1513      H1515   1.086       .  S
C1513      C1514   1.353       .  D
C1514      H1516   1.086       .  S
C1517      H1519   1.086       .  S
C1517      C1518   1.352       .  D
C1518      H1520   1.085       .  S
C1521      H1523   1.087       .  S
C1521      C1522   1.346       .  D
C1522      H1524   1.085       .  S
C1525      H1527   1.086       .  S
C1525      C1526   1.344       .  D
C1526      H1528   1.088       .  S
C1529      H1531   1.087       .  S
C1529      C1530   1.347       .  D
C1530      H1532   1.087       .  S
C1533      H1535   1.080       .  S
C1533      C1534   1.346       .  D
C1534      H1536   1.085       .  S
C1537      H1539   1.087       .  S
C1537      C1538   1.338       .  D
C1538      H1540   1.082       .  S
C1541      H1543   1.085       .  S
C1541      C1542   1.343       .  D
C1542      H1544   1.085       .  S
C1545      H1547   1.086       .  S
C1545      C1546   1.344       .  D
C1546      H1548   1.086       .  S
C1549      H1551   1.083       .  S
C1549      C1550   1.341       .  D
C1550      H1552   1.085       .  S
C1553      H1555   1.087       .  S
C1553      C1554   1.343       .  D
C1554      H1556   1.082       .  S
C1557      H1559   1.086       .  S
C1557      C1558   1.342       .  D
C1558      H1560   1.086       .  S
C1561      H1563   1.084       .  S
C1561      C1562   1.346       .  D
C1562      H1564   1.086       .  S
C1565      H1567   1.083       .  S
C1565      C1566   1.341       .  D
C1566      H1568   1.086       .  S
C1569      H1571   1.087       .  S
C1569      C1570   1.346       .  D
C1570      H1572   1.085       .  S
C1573      H1575   1.087       .  S
C1573      C1574   1.345       .  D
C1574      H1576   1.085       .  S
C1577      H1579   1.086       .  S
C1577      C1578   1.348       .  D
C1578      H1580   1.083       .  S
C1581      H1583   1.087       .  S
C1581      C1582   1.343       .  D
C1582      H1584   1.085       .  S
C1585      H1587   1.087       .  S
C1585      C1586   1.343       .  D
C1586      H1588   1.085       .  S
C1589      H1591   1.082       .  S
C1589      C1590   1.345       .  D
C1590      H1592   1.084       .  S
C1593      H1595   1.083       .  S
C1593      C1594   1.354   1_565  D
C1594      H1596   1.086   1_545  S
C1597      H1599   1.087       .  S
C1597      C1598   1.343       .  D
C1598      H1600   1.084       .  S
C1601      H1603   1.082       .  S
C1601      C1602   1.340       .  D
C1602      H1604   1.087       .  S
C1605      H1607   1.086       .  S
C1605      C1606   1.347       .  D
C1606      H1608   1.087       .  S
C1609      H1611   1.087       .  S
C1609      C1610   1.340       .  D
C1610      H1612   1.085       .  S
C1613      H1615   1.085       .  S
C1613      C1614   1.335       .  D
C1614      H1616   1.086       .  S
C1617      H1619   1.083       .  S
C1617      C1618   1.352       .  D
C1618      H1620   1.088       .  S
C1621      H1623   1.087       .  S
C1621      C1622   1.345       .  D
C1622      H1624   1.085       .  S
C1625      H1627   1.086       .  S
C1625      C1626   1.342       .  D
C1626      H1628   1.083       .  S
C1629      H1631   1.088       .  S
C1629      C1630   1.344       .  D
C1630      H1632   1.086       .  S
C1633      H1635   1.087       .  S
C1633      C1634   1.341       .  D
C1634      H1636   1.086       .  S
C1637      H1639   1.081       .  S
C1637      C1638   1.347       .  D
C1638      H1640   1.085       .  S
C1641      H1643   1.086       .  S
C1641      C1642   1.334       .  D
C1642      H1644   1.087       .  S
C1645      H1647   1.087       .  S
C1645      C1646   1.349       .  D
C1646      H1648   1.087       .  S
C1649      H1651   1.087       .  S
C1649      C1650   1.346       .  D
C1650      H1652   1.084       .  S
C1653      H1655   1.086       .  S
C1653      C1654   1.351       .  D
C1654      H1656   1.085       .  S
C1657      H1659   1.087       .  S
C1657      C1658   1.348       .  D
C1658      H1660   1.083       .  S
C1661      H1663   1.083       .  S
C1661      C1662   1.350       .  D
C1662      H1664   1.086       .  S
C1665      H1667   1.085       .  S
C1665      C1666   1.345       .  D
C1666      H1668   1.086       .  S
C1669      H1671   1.086       .  S
C1669      C1670   1.346       .  D
C1670      H1672   1.082       .  S
C1673      H1675   1.087       .  S
C1673      C1674   1.350   1_545  D
C1674      H1676   1.086       .  S
C1677      H1679   1.086       .  S
C1677      C1678   1.338       .  D
C1678      H1680   1.086       .  S
C1681      H1683   1.086       .  S
C1681      C1682   1.349       .  D
C1682      H1684   1.084       .  S
C1685      H1687   1.086       .  S
C1685      C1686   1.343       .  D
C1686      H1688   1.084       .  S
C1689      H1691   1.086       .  S
C1689      C1690   1.350       .  D
C1690      H1692   1.084       .  S
C1693      H1695   1.085       .  S
C1693      C1694   1.357       .  D
C1694      H1696   1.084       .  S
C1697      H1699   1.086       .  S
C1697      C1698   1.344       .  D
C1698      H1700   1.085       .  S
C1701      H1703   1.086       .  S
C1701      C1702   1.341       .  D
C1702      H1704   1.086       .  S
C1705      H1707   1.083       .  S
C1705      C1706   1.348       .  D
C1706      H1708   1.086       .  S
C1709      H1711   1.085       .  S
C1709      C1710   1.345       .  D
C1710      H1712   1.080       .  S
C1713      H1715   1.085       .  S
C1713      C1714   1.349       .  D
C1714      H1716   1.086       .  S
C1717      H1719   1.085       .  S
C1717      C1718   1.343       .  D
C1718      H1720   1.086       .  S
C1721      H1723   1.087       .  S
C1721      C1722   1.341       .  D
C1722      H1724   1.087       .  S
C1725      H1727   1.086       .  S
C1725      C1726   1.346       .  D
C1726      H1728   1.087       .  S
C1729      H1731   1.087       .  S
C1729      C1730   1.343       .  D
C1730      H1732   1.085       .  S
C1733      H1735   1.086       .  S
C1733      C1734   1.344   1_556  D
C1734      H1736   1.087   1_554  S
C1737      H1739   1.087       .  S
C1737      C1738   1.345       .  D
C1738      H1740   1.084       .  S
C1741      H1743   1.085       .  S
C1741      C1742   1.342       .  D
C1742      H1744   1.086       .  S
C1745      H1747   1.086       .  S
C1745      C1746   1.348       .  D
C1746      H1748   1.086       .  S
C1749      H1751   1.087       .  S
C1749      C1750   1.346       .  D
C1750      H1752   1.085       .  S
C1753      H1755   1.087       .  S
C1753      C1754   1.335       .  D
C1754      H1756   1.086       .  S
C1757      H1759   1.085       .  S
C1757      C1758   1.351       .  D
C1758      H1760   1.088       .  S
C1761      H1763   1.086       .  S
C1761      C1762   1.350       .  D
C1762      H1764   1.088       .  S
C1765      H1767   1.086       .  S
C1765      C1766   1.346       .  D
C1766      H1768   1.086       .  S
C1769      H1771   1.086       .  S
C1769      C1770   1.347       .  D
C1770      H1772   1.084       .  S
C1773      H1775   1.085       .  S
C1773      C1774   1.348       .  D
C1774      H1776   1.082       .  S
C1777      H1779   1.084       .  S
C1777      C1778   1.348   1_565  D
C1778      H1780   1.087       .  S
C1781      H1783   1.087       .  S
C1781      C1782   1.340       .  D
C1782      H1784   1.085       .  S
C1785      H1787   1.085       .  S
C1785      C1786   1.348       .  D
C1786      H1788   1.087       .  S
C1789      H1791   1.085       .  S
C1789      C1790   1.348       .  D
C1790      H1792   1.085       .  S
C1793      H1795   1.087       .  S
C1793      C1794   1.342       .  D
C1794      H1796   1.082       .  S
C1797      H1799   1.083       .  S
C1797      C1798   1.349       .  D
C1798      H1800   1.084       .  S
C1801      H1803   1.084       .  S
C1801      C1802   1.340       .  D
C1802      H1804   1.086       .  S
C1805      H1807   1.086       .  S
C1805      C1806   1.342   1_565  D
C1806      H1808   1.087       .  S
C1809      H1811   1.087       .  S
C1809      C1810   1.343       .  D
C1810      H1812   1.085       .  S
C1813      H1815   1.087       .  S
C1813      C1814   1.346       .  D
C1814      H1816   1.084       .  S
C1817      H1819   1.084       .  S
C1817      C1818   1.356       .  D
C1818      H1820   1.084       .  S
C1821      H1823   1.086       .  S
C1821      C1822   1.347       .  D
C1822      H1824   1.084       .  S
C1825      H1827   1.084       .  S
C1825      C1826   1.345       .  D
C1826      H1828   1.087       .  S
C1829      H1831   1.087       .  S
C1829      C1830   1.343       .  D
C1830      H1832   1.083       .  S
C1833      H1835   1.085       .  S
C1833      C1834   1.340       .  D
C1834      H1836   1.086       .  S
C1837      H1839   1.084       .  S
C1837      C1838   1.349       .  D
C1838      H1840   1.087       .  S
C1841      H1843   1.086       .  S
C1841      C1842   1.347       .  D
C1842      H1844   1.083       .  S
C1845      H1847   1.087       .  S
C1845      C1846   1.346       .  D
C1846      H1848   1.085       .  S
C1849      H1851   1.084       .  S
C1849      C1850   1.346       .  D
C1850      H1852   1.081       .  S
C1853      H1855   1.085       .  S
C1853      C1854   1.355       .  D
C1854      H1856   1.085       .  S
C1857      H1859   1.086       .  S
C1857      C1858   1.346       .  D
C1858      H1860   1.085       .  S
C1861      H1863   1.084       .  S
C1861      C1862   1.349       .  D
C1862      H1864   1.082       .  S
C1865      H1867   1.085       .  S
C1865      C1866   1.342       .  D
C1866      H1868   1.087       .  S
C1869      H1871   1.084       .  S
C1869      C1870   1.346       .  D
C1870      H1872   1.087       .  S
C1873      H1875   1.085       .  S
C1873      C1874   1.346       .  D
C1874      H1876   1.086       .  S
C1877      H1879   1.085       .  S
C1877      C1878   1.350       .  D
C1878      H1880   1.087       .  S
C1881      H1883   1.086       .  S
C1881      C1882   1.344       .  D
C1882      H1884   1.085       .  S
C1885      H1887   1.086       .  S
C1885      C1886   1.342       .  D
C1886      H1888   1.082       .  S
C1889      H1891   1.087       .  S
C1889      C1890   1.342       .  D
C1890      H1892   1.086       .  S
C1893      H1895   1.087       .  S
C1893      C1894   1.340       .  D
C1894      H1896   1.087       .  S
C1897      H1899   1.088       .  S
C1897      C1898   1.337       .  D
C1898      H1900   1.084       .  S
C1901      H1903   1.085       .  S
C1901      C1902   1.356       .  D
C1902      H1904   1.085       .  S
C1905      H1907   1.087       .  S
C1905      C1906   1.343       .  D
C1906      H1908   1.084       .  S
C1909      H1911   1.083       .  S
C1909      C1910   1.343       .  D
C1910      H1912   1.084       .  S
C1913      H1915   1.089       .  S
C1913      C1914   1.348   1_556  D
C1914      H1916   1.084   1_554  S
C1917      H1919   1.085       .  S
C1917      C1918   1.345       .  D
C1918      H1920   1.087       .  S
C1921      H1923   1.087       .  S
C1921      C1922   1.345       .  D
C1922      H1924   1.085       .  S
C1925      H1927   1.079       .  S
C1925      C1926   1.348       .  D
C1926      H1928   1.086       .  S
C1929      H1931   1.087       .  S
C1929      C1930   1.345       .  D
C1930      H1932   1.084       .  S
C1933      H1935   1.086       .  S
C1933      C1934   1.344       .  D
C1934      H1936   1.083       .  S
C1937      H1939   1.084       .  S
C1937      C1938   1.360       .  D
C1938      H1940   1.086       .  S
C1941      H1943   1.087       .  S
C1941      C1942   1.342       .  D
C1942      H1944   1.082       .  S
C1945      H1947   1.086       .  S
C1945      C1946   1.342       .  D
C1946      H1948   1.083       .  S
C1949      H1951   1.086       .  S
C1949      C1950   1.343       .  D
C1950      H1952   1.084       .  S
C1953      H1955   1.087       .  S
C1953      C1954   1.340       .  D
C1954      H1956   1.085       .  S
C1957      H1959   1.088       .  S
C1957      C1958   1.338       .  D
C1958      H1960   1.086       .  S
C1961      H1963   1.084       .  S
C1961      C1962   1.342       .  D
C1962      H1964   1.087       .  S
C1965      H1967   1.084       .  S
C1965      C1966   1.357       .  D
C1966      H1968   1.086       .  S
