geometry optimzed in LAMMPS
_audit_creation_date              2020-11-30 
_audit_creation_method            'lammps2cif' 
_symmetry_space_group_name_H-M    'P1' 
_symmetry_Int_Tables_number       1 
_symmetry_cell_setting            triclinic 
loop_ 
_symmetry_equiv_pos_as_xyz 
  x,y,z 
_cell_length_a                    43.98138449 
_cell_length_b                    28.98766653545919 
_cell_length_c                    44.3683615196007 
_cell_angle_alpha                 90.06060242061687 
_cell_angle_beta                  89.99019456991941 
_cell_angle_gamma                 90.13491673339038 
loop_ 
_atom_site_label 
_atom_site_type_symbol 
_atom_site_fract_x 
_atom_site_fract_y 
_atom_site_fract_z 
_atom_site_charge 
O1          O  0.18274014  0.43485363  0.30788555    -0.74900
O2          O  0.20943734  0.37825227  0.28397482    -0.53800
C3          C  0.18861073  0.39217299  0.30214260     0.78800
O4          O  0.18618939  0.58679278  0.19317030    -0.59500
O5          O  0.21612488  0.64055618  0.21658545    -0.52600
C6          C  0.19454944  0.62842922  0.19860379     0.70800
O7          O  0.18742657  0.43304338  0.18948331    -0.74100
O8          O  0.21107003  0.37704422  0.21661289    -0.54700
C9          C  0.19297000  0.39048284  0.19558218     0.76800
O10         O  0.19150674  0.59175076  0.31196810    -0.59200
O11         O  0.21572043  0.64474977  0.28239742    -0.52400
C12         C  0.19759318  0.63361957  0.30396989     0.73400
Zr13       Zr  0.20187311  0.51194644  0.29617843     2.54700
O14         O  0.14692934  0.52167831  0.29730523    -0.79800
O15         O  0.20345382  0.50684931  0.35090085    -0.93200
Zr16       Zr  0.20118211  0.50961820  0.20726866     2.64700
O17         O  0.14615951  0.50554700  0.21302940    -0.98200
O18         O  0.19870890  0.51387677  0.15251105    -0.80200
O19         O  0.19943044  0.46552617  0.25199646    -0.83600
O20         O  0.20190803  0.55575620  0.25137239    -2.18300
O21         O  0.31000180  0.58339142  0.30966301    -0.67000
O22         O  0.28245948  0.63875442  0.28535586    -0.51500
C23         C  0.30322642  0.62574475  0.30400228     0.71800
O24         O  0.30468589  0.42655385  0.19346359    -0.59900
O25         O  0.27564812  0.37326919  0.21817988    -0.51900
C26         C  0.29669150  0.38483271  0.19959714     0.73600
O27         O  0.31082207  0.58144917  0.19312894    -0.71300
O28         O  0.28353639  0.63722654  0.21752629    -0.50000
C29         C  0.30430536  0.62372381  0.19913135     0.75000
O30         O  0.30333848  0.42798564  0.31126065    -0.66600
O31         O  0.27774659  0.37447226  0.28312688    -0.53800
C32         C  0.29660313  0.38618905  0.30392677     0.73400
Zr33       Zr  0.29171801  0.50655451  0.29557725     2.77500
O34         O  0.34693408  0.50089855  0.29310283    -0.97400
O35         O  0.29086154  0.50934648  0.35040180    -0.78200
Zr36       Zr  0.29121809  0.50555863  0.20653217     2.70100
O37         O  0.34639818  0.49985390  0.20607852    -0.79400
O38         O  0.28763326  0.50677443  0.15173278    -0.98500
Zr39       Zr  0.24413070  0.41915963  0.25120291     2.21500
Zr40       Zr  0.24860167  0.59770032  0.25091998     2.11100
O41         O  0.29314573  0.55093676  0.25089470    -2.47200
O42         O  0.29094427  0.46088630  0.25118411    -0.79200
O43         O  0.24799281  0.55427668  0.29650594    -0.71400
O44         O  0.24526366  0.46311998  0.20593707    -2.32400
O45         O  0.24553160  0.46410649  0.29650936    -2.28600
O46         O  0.24719475  0.55270597  0.20588254    -0.73200
H47         H  0.18470621  0.57636618  0.25152347     0.78800
H48         H  0.24500541  0.44350324  0.18836381     0.79900
H49         H  0.31133952  0.56963673  0.25088141     0.82100
H50         H  0.24490685  0.44451879  0.31408024     0.79700
H51         H  0.17748775  0.50539625  0.14746743     0.42800
H52         H  0.30845812  0.49955661  0.14471042     0.41700
H53         H  0.35121153  0.47878432  0.22296286     0.41400
H54         H  0.35283515  0.52069794  0.27589003     0.39400
H55         H  0.30997302  0.49414116  0.35667579     0.42500
H56         H  0.18280228  0.51601044  0.35744425     0.37300
H57         H  0.14127564  0.52867887  0.27621835     0.43400
H58         H  0.14002881  0.53694320  0.21933749     0.39800
H59         H  0.35433444  0.51773947  0.31110004     0.44700
H60         H  0.21668531  0.53279356  0.35721786     0.43400
H61         H  0.13828314  0.50243017  0.19222533     0.43600
H62         H  0.27552812  0.47908998  0.14643912     0.43900
O63         O  0.44005640  0.43425764  0.43772247    -0.74900
O64         O  0.46358169  0.37758029  0.46437978    -0.53800
C65         C  0.44550125  0.39154960  0.44348235     0.78800
O66         O  0.05594228  0.58641399  0.44257980    -0.59500
O67         O  0.03190082  0.64238983  0.46964245    -0.52600
C68         C  0.05063861  0.62904341  0.44904380     0.70800
O69         O  0.05616577  0.43004591  0.44391383    -0.74100
O70         O  0.02687310  0.37549836  0.46709568    -0.54700
C71         C  0.04842224  0.38792107  0.44928239     0.76800
O72         O  0.43497112  0.58866105  0.44516340    -0.59200
O73         O  0.46429772  0.64268154  0.46898437    -0.52400
C74         C  0.44258539  0.63057132  0.45105542     0.73400
Zr75       Zr  0.45289282  0.51111374  0.45588696     2.54700
O76         O  0.45499768  0.51977430  0.40133964    -0.79800
O77         O  0.39769612  0.50455435  0.45553167    -0.93200
Zr78       Zr  0.04149921  0.50844115  0.45792807     2.64700
O79         O  0.04414129  0.50438562  0.40316246    -0.98200
O80         O  0.09669432  0.50968476  0.46225641    -0.80200
O81         O  0.49728259  0.46494834  0.45495386    -0.83600
O82         O  0.49808482  0.55558015  0.45623017    -2.18300
O83         O  0.43268295  0.58549052  0.05879164    -0.67000
O84         O  0.46242170  0.64039096  0.03637597    -0.51500
C85         C  0.44067956  0.62743914  0.05390741     0.71800
O86         O  0.05106160  0.43148664  0.06511425    -0.59900
O87         O  0.02722170  0.37785650  0.03555560    -0.51900
C88         C  0.04497903  0.38965794  0.05720613     0.73600
O89         O  0.05946291  0.58606378  0.05989599    -0.71300
O90         O  0.03145146  0.64190223  0.03649128    -0.50000
C91         C  0.05272074  0.62840976  0.05447390     0.75000
O92         O  0.43359323  0.43256916  0.05950088    -0.66600
O93         O  0.45893648  0.37720014  0.03321829    -0.53800
C94         C  0.43882406  0.39027736  0.05257062     0.73400
Zr95       Zr  0.45069305  0.50926130  0.04593447     2.77500
O96         O  0.45535590  0.51052253  0.10059619    -0.97400
O97         O  0.39539294  0.50771782  0.04667220    -0.78200
Zr98       Zr  0.04022433  0.50953454  0.04730634     2.70100
O99         O  0.03775818  0.51504592  0.10201644    -0.79400
O100        O  0.09530520  0.50133687  0.04698228    -0.98500
Zr101      Zr  0.49377032  0.42014502  0.00055541     2.21500
Zr102      Zr  0.49610622  0.59928043  0.00222238     2.11100
O103        O  0.49586924  0.55405270  0.04708030    -2.47200
O104        O  0.49508590  0.46334292  0.04626254    -0.79200
O105        O  0.45035443  0.55521807  0.00195569    -0.71400
O106        O  0.04056272  0.46541737  0.00240970    -2.32400
O107        O  0.44863496  0.46514807  0.00110404    -2.28600
O108        O  0.04148459  0.55555255  0.00298403    -0.73200
H109        H  0.49819189  0.57559633  0.43881486     0.78800
H110        H  0.05824312  0.44572385  0.00257149     0.79900
H111        H  0.49613059  0.57344619  0.06482239     0.82100
H112        H  0.43066416  0.44588608  0.00087198     0.79700
H113        H  0.10152129  0.54007808  0.47129604     0.42800
H114        H  0.10276000  0.52789811  0.03504731     0.41700
H115        H  0.05893214  0.51004216  0.10882622     0.41400
H116        H  0.43525426  0.50006708  0.10800260     0.39400
H117        H  0.38954166  0.50190358  0.02545395     0.42500
H118        H  0.39123237  0.52035392  0.43683212     0.37300
H119        H  0.43387523  0.52719347  0.39536303     0.43400
H120        H  0.03219248  0.53113035  0.39603035     0.39800
H121        H  0.46927314  0.48471380  0.10530588     0.44700
H122        H  0.39086703  0.52511219  0.47201640     0.43400
H123        H  0.06549025  0.51235491  0.39829850     0.43600
H124        H  0.10162066  0.50829002  0.06792344     0.43900
C125        C  0.37034697  0.25940852  0.37491718    -0.02100
O126        O  0.30362294  0.09107450  0.43986374    -0.74900
O127        O  0.28151550  0.14540223  0.46998035    -0.53800
C128        C  0.29863034  0.13311537  0.44800284     0.78800
O129        O  0.18830012  0.93447118  0.44196135    -0.59500
O130        O  0.21370092  0.87938972  0.46875156    -0.52600
C131        C  0.19473760  0.89207633  0.44826494     0.70800
O132        O  0.18609449  0.09098204  0.44619194    -0.74100
O133        O  0.21499660  0.14519250  0.47034798    -0.54700
C134        C  0.19359196  0.13304678  0.45218206     0.76800
O135        O  0.30389891  0.93562083  0.43791779    -0.59200
O136        O  0.28038463  0.88070121  0.46662323    -0.52400
C137        C  0.29820564  0.89344931  0.44504894     0.73400
Zr138      Zr  0.29126864  0.01259903  0.45614090     2.54700
O139        O  0.29001461  0.01147799  0.40129024    -0.79800
O140        O  0.34664729  0.01365869  0.45643320    -0.93200
Zr141      Zr  0.20137971  0.01260985  0.45956456     2.64700
O142        O  0.19642674  0.01749969  0.40498905    -0.98200
O143        O  0.14657852  0.00994084  0.46704805    -0.80200
O144        O  0.24650407  0.05791267  0.45751707    -0.83600
O145        O  0.24622042  0.96781865  0.45716649    -2.18300
O146        O  0.30624537  0.93370312  0.06230502    -0.67000
O147        O  0.28208693  0.87854610  0.03425109    -0.51500
C148        C  0.30047191  0.89156032  0.05527978     0.71800
O149        O  0.18956988  0.08588918  0.06370896    -0.59900
O150        O  0.21424065  0.14180102  0.03727910    -0.51900
C151        C  0.19559778  0.12837610  0.05785675     0.73600
O152        O  0.18939950  0.93204521  0.06381662    -0.71300
O153        O  0.21360497  0.87731572  0.03555293    -0.50000
C154        C  0.19518825  0.89008431  0.05656152     0.75000
O155        O  0.30995280  0.08682996  0.05650690    -0.66600
O156        O  0.28191662  0.14197600  0.03288348    -0.53800
C157        C  0.30346449  0.12906707  0.05064057     0.73400
Zr158      Zr  0.29290163  0.00986704  0.04377628     2.77500
O159        O  0.29434025  0.01645950  0.09846518    -0.97400
O160        O  0.34791376  0.00403007  0.03897555    -0.78200
Zr161      Zr  0.20324127  0.00884285  0.04722381     2.70100
O162        O  0.20509329  0.00729812  0.10203299    -0.79400
O163        O  0.14791698  0.00985509  0.04655649    -0.98500
Zr164      Zr  0.24571915  0.09919697  0.00186221     2.21500
Zr165      Zr  0.24685078  0.91966576  0.00129704     2.11100
O166        O  0.24823686  0.96451346  0.04629160    -2.47200
O167        O  0.24792754  0.05461952  0.04686735    -0.79200
O168        O  0.29213575  0.96500676  0.99913196    -0.71400
O169        O  0.20044527  0.05353961  0.00290237    -2.32400
O170        O  0.29161298  0.05549475  0.99947180    -2.28600
O171        O  0.20090426  0.96314612  0.00288197    -0.73200
H172        H  0.24561215  0.94869445  0.43935359     0.78800
H173        H  0.18251906  0.07274236  0.00378722     0.79900
H174        H  0.24872418  0.94516748  0.06397546     0.82100
H175        H  0.30922918  0.07545352  0.99855295     0.79700
H176        H  0.14263358  0.97905325  0.47573476     0.42800
H177        H  0.14202373  0.98053607  0.03666321     0.41700
H178        H  0.22025014  0.03120456  0.10746848     0.41400
H179        H  0.28097859  0.99134005  0.10581940     0.39400
H180        H  0.35334358  0.02659164  0.02311875     0.42500
H181        H  0.35235960  0.01696655  0.43494983     0.37300
H182        H  0.27486542  0.03522901  0.39578799     0.43400
H183        H  0.20904052  0.99195998  0.39708012     0.39800
H184        H  0.31513411  0.00670090  0.10410293     0.44700
H185        H  0.35263040  0.98176561  0.46170757     0.43400
H186        H  0.17521122  0.00789779  0.40084055     0.43600
H187        H  0.14198874  0.00575879  0.06792033     0.43900
C188        C  0.12334862  0.75993433  0.37616932    -0.02100
O189        O  0.43179951  0.09119596  0.19811638    -0.74900
O190        O  0.46267857  0.14518247  0.21985137    -0.53800
C191        C  0.44023617  0.13321655  0.20301136     0.78800
O192        O  0.44277055  0.93375436  0.31590622    -0.59500
O193        O  0.46388377  0.87937085  0.28515259    -0.52600
C194        C  0.44719709  0.89179360  0.30763484     0.70800
O195        O  0.44036281  0.08832555  0.31214048    -0.74100
O196        O  0.46520033  0.14425451  0.28590137    -0.54700
C197        C  0.44628076  0.13082231  0.30614230     0.76800
O198        O  0.43486615  0.93510097  0.19164252    -0.59200
O199        O  0.46159450  0.87995443  0.21717091    -0.52400
C200        C  0.44189829  0.89291301  0.19740681     0.73400
Zr201      Zr  0.44824914  0.01236193  0.20940945     2.54700
O202        O  0.39313264  0.01115077  0.21471917    -0.79800
O203        O  0.44533449  0.01657817  0.15467056    -0.93200
Zr204      Zr  0.45519539  0.01071331  0.29815803     2.64700
O205        O  0.40001991  0.00869111  0.30271613    -0.98200
O206        O  0.46119387  0.01553302  0.35263115    -0.80200
O207        O  0.45086070  0.05658294  0.25427058    -0.83600
O208        O  0.45086875  0.96614296  0.25349485    -2.18300
O209        O  0.05318460  0.93414778  0.18768357    -0.67000
O210        O  0.03099958  0.87917102  0.21740558    -0.51500
C211        C  0.04841554  0.89207115  0.19559881     0.71800
O212        O  0.06063903  0.08758225  0.30844631    -0.59900
O213        O  0.03310382  0.14338243  0.28492379    -0.51900
C214        C  0.05408848  0.13012939  0.30307578     0.73600
O215        O  0.05449274  0.93160587  0.31263478    -0.71300
O216        O  0.02951947  0.87648614  0.28553814    -0.50000
C217        C  0.04779294  0.88924753  0.30670776     0.75000
O218        O  0.05386492  0.08860399  0.18890280    -0.66600
O219        O  0.03165563  0.14270800  0.21912957    -0.53800
C220        C  0.04881126  0.13051601  0.19708217     0.73400
Zr221      Zr  0.04113744  0.01116110  0.20603951     2.77500
O222        O  0.09635440  0.01211102  0.21042342    -0.97400
O223        O  0.04425795  0.01189974  0.15128004    -0.78200
Zr224      Zr  0.04472019  0.00966403  0.29453629     2.70100
O225        O  0.09922008  0.00262294  0.28621222    -0.79400
O226        O  0.05223054  0.01596975  0.34878364    -0.98500
Zr227      Zr  0.99857971  0.10035320  0.25293384     2.21500
Zr228      Zr  0.49649344  0.92160775  0.25021636     2.11100
O229        O  0.04338893  0.96474460  0.24997891    -2.47200
O230        O  0.04410369  0.05602885  0.25063963    -0.79200
O231        O  0.49309180  0.96739607  0.20559424    -0.71400
O232        O  0.99994845  0.05459013  0.29764556    -2.32400
O233        O  0.99633453  0.05656117  0.20731402    -2.28600
O234        O  0.49998165  0.96587097  0.29533191    -0.73200
H235        H  0.43321156  0.94624647  0.25459478     0.78800
H236        H  0.00077938  0.07380598  0.31542573     0.79900
H237        H  0.06088198  0.94460935  0.24938063     0.82100
H238        H  0.99556601  0.07645203  0.18987725     0.79700
H239        H  0.47379779  0.98850470  0.35798704     0.42800
H240        H  0.04037433  0.99020036  0.35754722     0.41700
H241        H  0.10863197  0.01814735  0.30378059     0.41400
H242        H  0.10070841  0.03526667  0.22627413     0.39400
H243        H  0.02339154  0.01934745  0.14454287     0.42500
H244        H  0.42359131  0.01125089  0.15000117     0.34900
H245        H  0.38912295  0.98948452  0.23148773     0.43400
H246        H  0.39360925  0.98097049  0.29129672     0.39800
H247        H  0.10168868  0.98216500  0.21970489     0.44700
H248        H  0.45577457  0.98847277  0.14736558     0.43400
H249        H  0.39623387  0.00068393  0.32408493     0.43600
H250        H  0.07376372  0.00741405  0.35204512     0.43900
C251        C  0.37111425  0.75882021  0.12649571    -0.02100
C252        C  0.11927303  0.25996078  0.12452852    -0.02100
C253        C  0.36988061  0.25918249  0.12749205    -0.02100
C254        C  0.12323150  0.75974379  0.12831966    -0.02100
C255        C  0.12254800  0.26043280  0.37858212    -0.02100
C256        C  0.37254962  0.76065332  0.37665452    -0.02100
C257        C  0.10005009  0.15219864  0.33206606    -0.20900
C258        C  0.07236154  0.16546265  0.31923253    -0.09000
C259        C  0.06302875  0.21167920  0.32240761     0.29900
C260        C  0.08009988  0.24242082  0.34012559    -0.20900
C261        C  0.10571843  0.22724250  0.35659172    -0.09000
C262        C  0.11689741  0.18251886  0.34967701     0.29900
F263        F  0.14442233  0.16742982  0.35923664    -0.19500
H264        H  0.10897711  0.11783268  0.32844492     0.18200
H265        H  0.07224380  0.27761785  0.34237035     0.18200
F266        F  0.03697704  0.22688500  0.30942325    -0.19500
C267        C  0.09430913  0.23669972  0.17600275    -0.20900
C268        C  0.09756973  0.23064041  0.14457352    -0.09000
C269        C  0.08002460  0.19531861  0.13069492     0.29900
C270        C  0.06422013  0.16324560  0.14798121    -0.20900
C271        C  0.06364651  0.16699349  0.17936007    -0.09000
C272        C  0.07776384  0.20492278  0.19325646     0.29900
F273        F  0.07679690  0.21002375  0.22365119    -0.19500
H274        H  0.10461467  0.26553088  0.18756529     0.18200
H275        H  0.05261184  0.13500393  0.13678607     0.18200
F276        F  0.08013855  0.18956242  0.10032378    -0.19500
C277        C  0.39928732  0.78734086  0.32693068    -0.20900
C278        C  0.39432977  0.79271784  0.35828029    -0.09000
C279        C  0.40884385  0.83073037  0.37259918     0.29900
C280        C  0.42638682  0.86204138  0.35613153    -0.20900
C281        C  0.43105439  0.85595259  0.32514747    -0.09000
C282        C  0.41797858  0.81765310  0.31088553     0.29900
F283        F  0.42203979  0.81061476  0.28098683    -0.19500
H284        H  0.38857635  0.76031384  0.31405965     0.18200
H285        H  0.43636231  0.89132390  0.36770526     0.18200
F286        F  0.40577933  0.83800625  0.40268750    -0.19500
C287        C  0.08498917  0.82719329  0.19478965    -0.20900
C288        C  0.06552244  0.85655894  0.17902061    -0.09000
C289        C  0.06577939  0.85581713  0.14744408     0.29900
C290        C  0.08443365  0.82481082  0.13200332    -0.20900
C291        C  0.10343255  0.79337283  0.14748855    -0.09000
C292        C  0.10457654  0.79730703  0.17948739     0.29900
F293        F  0.12593623  0.77583619  0.19638455    -0.19500
H294        H  0.08640480  0.82948710  0.21913518     0.18200
H295        H  0.08371989  0.82467006  0.10759861     0.18200
F296        F  0.04784441  0.88496997  0.13148652    -0.19500
C297        C  0.42607334  0.85836123  0.14833687    -0.20900
C298        C  0.42587130  0.85700630  0.17988006    -0.09000
C299        C  0.40870266  0.82302126  0.19440691     0.29900
C300        C  0.39137073  0.79160237  0.17776150    -0.20900
C301        C  0.39170100  0.79155583  0.14579660    -0.09000
C302        C  0.40962807  0.82595243  0.13147398     0.29900
F303        F  0.41095447  0.82858538  0.10095392    -0.19500
H304        H  0.43906686  0.88467096  0.13669456     0.18200
H305        H  0.37697846  0.76875956  0.19057614     0.18200
F306        F  0.40716538  0.82191285  0.22486902    -0.19500
C307        C  0.39133670  0.16471288  0.18465406    -0.20900
C308        C  0.42279653  0.16975175  0.18758755    -0.09000
C309        C  0.43715449  0.20774754  0.17389325     0.29900
C310        C  0.42050847  0.23771337  0.15535900    -0.20900
C311        C  0.38921129  0.23024714  0.14996476    -0.09000
C312        C  0.37463527  0.19492444  0.16681505     0.29900
F313        F  0.34422724  0.18760405  0.16452899    -0.19500
H314        H  0.37964440  0.13651497  0.19576649     0.18200
H315        H  0.43241344  0.26634769  0.14516693     0.18200
F316        F  0.46752260  0.21458414  0.17711238    -0.19500
C317        C  0.09197478  0.83453997  0.37058680    -0.20900
C318        C  0.10013983  0.79094628  0.35876499    -0.09000
C319        C  0.08422564  0.77638327  0.33258338     0.29900
C320        C  0.06646860  0.80776849  0.31593992    -0.20900
C321        C  0.06279746  0.85357434  0.32578168    -0.09000
C322        C  0.07457383  0.86569132  0.35416779     0.29900
F323        F  0.06955742  0.90802241  0.36627233    -0.19500
H324        H  0.09983935  0.84571053  0.39251089     0.18200
H325        H  0.05633034  0.79652619  0.29492976     0.18200
F326        F  0.08640014  0.73241841  0.32239811    -0.19500
C327        C  0.31198993  0.21008364  0.06936112    -0.20900
C328        C  0.32207124  0.16440817  0.06630410    -0.09000
C329        C  0.34975046  0.15192604  0.07984605     0.29900
C330        C  0.36470503  0.18239346  0.09893042    -0.20900
C331        C  0.35287998  0.22662650  0.10532683    -0.09000
C332        C  0.32777142  0.24137606  0.08778813     0.29900
F333        F  0.31783145  0.28559080  0.08897658    -0.19500
H334        H  0.29154401  0.22141226  0.05799367     0.18200
H335        H  0.38585452  0.17067362  0.10865410     0.18200
F336        F  0.36262649  0.11007220  0.07478143    -0.19500
C337        C  0.14664443  0.18182896  0.11843084    -0.20900
C338        C  0.14145229  0.22704041  0.10753226    -0.09000
C339        C  0.15992524  0.24175224  0.08319500     0.29900
C340        C  0.17792697  0.20999899  0.06722506    -0.20900
C341        C  0.17932004  0.16349078  0.07612455    -0.09000
C342        C  0.16436119  0.15039029  0.10275834     0.29900
F343        F  0.16672589  0.10699601  0.11404596    -0.19500
H344        H  0.13691355  0.16978921  0.13936837     0.18200
H345        H  0.19026366  0.22168945  0.04752849     0.18200
F346        F  0.15971121  0.28630640  0.07394959    -0.19500
C347        C  0.14172802  0.79298597  0.07661682    -0.20900
C348        C  0.14336253  0.79218359  0.10851766    -0.09000
C349        C  0.16261374  0.82526590  0.12254207     0.29900
C350        C  0.18009291  0.85579158  0.10543707    -0.20900
C351        C  0.17901885  0.85462088  0.07395516    -0.09000
C352        C  0.15961384  0.82327217  0.05964812     0.29900
F353        F  0.15633796  0.82419466  0.02928432    -0.19500
H354        H  0.12591803  0.77168843  0.06426954     0.18200
H355        H  0.19436906  0.88082542  0.11685314     0.18200
F356        F  0.16465000  0.82802306  0.15301639    -0.19500
C357        C  0.31904238  0.86318878  0.39638610    -0.20900
C358        C  0.31412279  0.85747871  0.42738165    -0.09000
C359        C  0.32673398  0.81912472  0.44172977     0.29900
C360        C  0.34544172  0.78865555  0.42596551    -0.20900
C361        C  0.35056807  0.79325223  0.39457828    -0.09000
C362        C  0.33636276  0.83128119  0.38004483     0.29900
F363        F  0.33985315  0.83840707  0.34999504    -0.19500
H364        H  0.30945234  0.89258486  0.38473671     0.18200
H365        H  0.35606712  0.76222979  0.43925536     0.18200
F366        F  0.32229564  0.81225525  0.47156942    -0.19500
C367        C  0.12774226  0.19594076  0.41673678    -0.20900
C368        C  0.14220782  0.23253884  0.40125745    -0.09000
C369        C  0.17316655  0.24120636  0.40826914     0.29900
C370        C  0.18973229  0.20957600  0.42574692    -0.20900
C371        C  0.17575240  0.16959563  0.43712450    -0.09000
C372        C  0.14430599  0.16407834  0.43342244     0.29900
F373        F  0.12953336  0.12734032  0.44555729    -0.19500
H374        H  0.10361556  0.18986317  0.41388579     0.18200
H375        H  0.21372242  0.21565849  0.42964215     0.18200
F376        F  0.18748580  0.28018883  0.39907929    -0.19500
C377        C  0.31683442  0.85849141  0.10444029    -0.20900
C378        C  0.31641993  0.85601077  0.07291141    -0.09000
C379        C  0.33340268  0.82186057  0.05848031     0.29900
C380        C  0.35083460  0.79093506  0.07521644    -0.20900
C381        C  0.35086209  0.79164865  0.10719251    -0.09000
C382        C  0.33357497  0.82680179  0.12141290     0.29900
F383        F  0.33276090  0.83040461  0.15190939    -0.19500
H384        H  0.30412941  0.88517328  0.11598690     0.18200
H385        H  0.36496132  0.76778241  0.06241594     0.18200
F386        F  0.33480969  0.82031076  0.02800274    -0.19500
C387        C  0.17470527  0.86265572  0.39928274    -0.20900
C388        C  0.17938956  0.85568702  0.43014845    -0.09000
C389        C  0.16931122  0.81406212  0.44303486     0.29900
C390        C  0.15179944  0.78275196  0.42614024    -0.20900
C391        C  0.14485083  0.79126605  0.39552126    -0.09000
C392        C  0.15911561  0.83003087  0.38191943     0.29900
F393        F  0.15627323  0.83810872  0.35191784    -0.19500
H394        H  0.18343970  0.89342105  0.38842720     0.18200
H395        H  0.14402834  0.75175588  0.43725050     0.18200
F396        F  0.17573519  0.80404414  0.47216675    -0.19500
C397        C  0.41014768  0.24262278  0.33386154    -0.20900
C398        C  0.39208308  0.22617135  0.35796185    -0.09000
C399        C  0.39718663  0.18001955  0.36746710     0.29900
C400        C  0.41495082  0.15042440  0.35049602    -0.20900
C401        C  0.42982311  0.16549467  0.32441592    -0.09000
C402        C  0.42835222  0.21257016  0.31683927     0.29900
F403        F  0.44373420  0.22941481  0.29271020    -0.19500
H404        H  0.40900697  0.27855867  0.32733294     0.18200
H405        H  0.41721038  0.11516572  0.35825104     0.18200
F406        F  0.38629196  0.16282298  0.39377241    -0.19500
C407        C  0.34466512  0.23869022  0.42635319    -0.20900
C408        C  0.34794092  0.23173455  0.39499869    -0.09000
C409        C  0.32970215  0.19700137  0.38138813     0.29900
C410        C  0.31357007  0.16570202  0.39891184    -0.20900
C411        C  0.31339595  0.16961400  0.43024531    -0.09000
C412        C  0.32778164  0.20762135  0.44388907     0.29900
F413        F  0.32681162  0.21342653  0.47423830    -0.19500
H414        H  0.35552496  0.26734508  0.43763105     0.18200
H415        H  0.30160680  0.13761284  0.38792418     0.18200
F416        F  0.32979466  0.19033223  0.35113493    -0.19500
C417        C  0.07786702  0.32012321  0.12073627    -0.20900
C418        C  0.09639473  0.28790844  0.10520326    -0.09000
C419        C  0.09264914  0.28452563  0.07356461     0.29900
C420        C  0.07515304  0.31720934  0.05816367    -0.20900
C421        C  0.06014512  0.35247264  0.07383585    -0.09000
C422        C  0.06040090  0.35238682  0.10533390     0.29900
F423        F  0.04403335  0.38377567  0.12122238    -0.19500
H424        H  0.07856912  0.32223423  0.14510265     0.18200
H425        H  0.07389359  0.31561784  0.03379568     0.18200
F426        F  0.10490612  0.24971212  0.05726420    -0.19500
C427        C  0.05501295  0.69399565  0.09043355    -0.20900
C428        C  0.07024801  0.66354966  0.07129272    -0.09000
C429        C  0.10213324  0.66269464  0.07180505     0.29900
C430        C  0.11835142  0.69391804  0.08982041    -0.20900
C431        C  0.10337988  0.72630993  0.10859793    -0.09000
C432        C  0.07105638  0.72329304  0.10987213     0.29900
F433        F  0.05449351  0.74466209  0.13148493    -0.19500
H434        H  0.03044905  0.69269765  0.09193970     0.18200
H435        H  0.14296182  0.69283835  0.08920976     0.18200
F436        F  0.11762435  0.63144304  0.05498210    -0.19500
C437        C  0.42245860  0.72574686  0.10632851    -0.20900
C438        C  0.39025270  0.72600658  0.10617271    -0.09000
C439        C  0.37534870  0.69206592  0.08833083     0.29900
C440        C  0.39190444  0.66107835  0.07081062    -0.20900
C441        C  0.42366109  0.66278086  0.07039095    -0.09000
C442        C  0.43887081  0.69516597  0.08827319     0.29900
F443        F  0.46969186  0.69534041  0.08968714    -0.19500
H444        H  0.43550657  0.74807175  0.12087566     0.18200
H445        H  0.37985913  0.63545088  0.05757491     0.18200
F446        F  0.34454248  0.68902772  0.08766877    -0.19500
C447        C  0.08009362  0.65004311  0.40312835    -0.20900
C448        C  0.06723734  0.66407351  0.43056280    -0.09000
C449        C  0.07037235  0.71071983  0.43901421     0.29900
C450        C  0.08743084  0.74138098  0.42104105    -0.20900
C451        C  0.10295283  0.72616149  0.39487566    -0.09000
C452        C  0.09680096  0.68032678  0.38523152     0.29900
F453        F  0.10605895  0.66410141  0.35806637    -0.19500
H454        H  0.07685445  0.61513941  0.39496807     0.18200
H455        H  0.08928218  0.77699014  0.42817217     0.18200
F456        F  0.05760110  0.72663304  0.46484648    -0.19500
C457        C  0.39358881  0.66144801  0.43158987    -0.20900
C458        C  0.42505957  0.66668291  0.43524449    -0.09000
C459        C  0.43971256  0.70357577  0.42094594     0.29900
C460        C  0.42330173  0.73362492  0.40241517    -0.20900
C461        C  0.39133295  0.72923810  0.39856712    -0.09000
C462        C  0.37691137  0.69220670  0.41389296     0.29900
F463        F  0.34643714  0.68545435  0.41157071    -0.19500
H464        H  0.38182604  0.63298743  0.44232653     0.18200
H465        H  0.43646744  0.75935007  0.39071952     0.18200
F466        F  0.47029804  0.70898039  0.42334275    -0.19500
C467        C  0.05294219  0.31205791  0.42210400    -0.20900
C468        C  0.06653231  0.35172966  0.43434986    -0.09000
C469        C  0.09809104  0.35709332  0.43219192     0.29900
C470        C  0.11533769  0.32547893  0.41604155    -0.20900
C471        C  0.10163776  0.28872973  0.40003653    -0.09000
C472        C  0.07027858  0.28031164  0.40545510     0.29900
F473        F  0.05635171  0.24112008  0.39600883    -0.19500
H474        H  0.02878623  0.30608030  0.42493908     0.18200
H475        H  0.13958388  0.33147107  0.41439247     0.18200
F476        F  0.11235948  0.39325860  0.44562833    -0.19500
C477        C  0.37677610  0.33720122  0.10036537    -0.20900
C478        C  0.38797979  0.29244728  0.10646627    -0.09000
C479        C  0.41365494  0.27795980  0.08961089     0.29900
C480        C  0.42985169  0.30928470  0.07150106    -0.20900
C481        C  0.42015721  0.35517630  0.06856332    -0.09000
C482        C  0.39255077  0.36803133  0.08215389     0.29900
F483        F  0.38038380  0.41053484  0.07776541    -0.19500
H484        H  0.35542473  0.34908525  0.10957419     0.18200
H485        H  0.45036736  0.29781167  0.06030355     0.18200
F486        F  0.42367947  0.23383151  0.09106428    -0.19500
C487        C  0.42796066  0.31000019  0.43319816    -0.20900
C488        C  0.42919664  0.35672047  0.42477789    -0.09000
C489        C  0.41411590  0.37016796  0.39827181     0.29900
C490        C  0.39674089  0.33863953  0.38204770    -0.20900
C491        C  0.39205614  0.29294767  0.39227148    -0.09000
C492        C  0.41021869  0.27828337  0.41685909     0.29900
F493        F  0.41026071  0.23357322  0.42578683    -0.19500
H494        H  0.44026955  0.29803618  0.45281704     0.18200
H495        H  0.38691087  0.35088299  0.36122712     0.18200
F496        F  0.41605229  0.41399597  0.38764405    -0.19500
C497        C  0.35203745  0.65675105  0.32475231    -0.20900
C498        C  0.32065535  0.66174305  0.32040888    -0.09000
C499        C  0.30605895  0.70012836  0.33300883     0.29900
C500        C  0.32232897  0.73180282  0.35065876    -0.20900
C501        C  0.35412955  0.72752629  0.35533168    -0.09000
C502        C  0.36864608  0.68926665  0.34139295     0.29900
F503        F  0.39909372  0.68288097  0.34413346    -0.19500
H504        H  0.36384666  0.62752570  0.31505208     0.18200
H505        H  0.30925334  0.75900985  0.36087741     0.18200
F506        F  0.27562897  0.70588734  0.32954032    -0.19500
C507        C  0.18164609  0.31202123  0.32248343    -0.20900
C508        C  0.17051130  0.35696789  0.31843088    -0.09000
C509        C  0.14236727  0.36848871  0.33120923     0.29900
C510        C  0.12721284  0.33725291  0.34969143    -0.20900
C511        C  0.13993490  0.29386668  0.35714628    -0.09000
C512        C  0.16627294  0.28047081  0.34098063     0.29900
F513        F  0.17806828  0.23757582  0.34382918    -0.19500
H514        H  0.20276230  0.30153618  0.31197490     0.18200
H515        H  0.10521577  0.34766488  0.35815683     0.18200
F516        F  0.12917548  0.40995540  0.32571768    -0.19500
C517        C  0.34564280  0.35297343  0.18346922    -0.20900
C518        C  0.31410439  0.34828251  0.18461529    -0.09000
C519        C  0.30018862  0.31043315  0.17039027     0.29900
C520        C  0.31770068  0.28014303  0.15284097    -0.20900
C521        C  0.34932161  0.28747152  0.14912248    -0.09000
C522        C  0.36312503  0.32244009  0.16683424     0.29900
F523        F  0.39364465  0.32935317  0.16634905    -0.19500
H524        H  0.35684788  0.38109323  0.19519106     0.18200
H525        H  0.30627091  0.25148613  0.14211681     0.18200
F526        F  0.26965887  0.30399358  0.17230470    -0.19500
C527        C  0.14569283  0.66370026  0.18418735    -0.20900
C528        C  0.17744925  0.66433931  0.18291443    -0.09000
C529        C  0.19216655  0.69590143  0.16414037     0.29900
C530        C  0.17520762  0.72612740  0.14640122    -0.20900
C531        C  0.14299138  0.72726897  0.14809300    -0.09000
C532        C  0.12862465  0.69460965  0.16716531     0.29900
F533        F  0.09789473  0.69298897  0.16968662    -0.19500
H534        H  0.13403627  0.63887507  0.19835072     0.18200
H535        H  0.18783730  0.74735793  0.13085838     0.18200
F536        F  0.22289298  0.69554504  0.16153265    -0.19500
C537        C  0.30492751  0.69133230  0.16562872    -0.20900
C538        C  0.32113106  0.65939866  0.18269479    -0.09000
C539        C  0.35291852  0.65995048  0.18197861     0.29900
C540        C  0.36814982  0.69253801  0.16434993    -0.20900
C541        C  0.35218454  0.72557599  0.14686711    -0.09000
C542        C  0.31987407  0.72313242  0.14728569     0.29900
F543        F  0.30204020  0.74846911  0.12881154    -0.19500
H544        H  0.28035005  0.69003391  0.16529250     0.18200
H545        H  0.39277868  0.69209202  0.16423724     0.18200
F546        F  0.36920856  0.62934125  0.19853379    -0.19500
C547        C  0.33103329  0.32226421  0.36898033    -0.20900
C548        C  0.34829432  0.28752873  0.35456499    -0.09000
C549        C  0.34330633  0.28071657  0.32321408     0.29900
C550        C  0.32513997  0.31166114  0.30690898    -0.20900
C551        C  0.31166936  0.34955750  0.32128233    -0.09000
C552        C  0.31399171  0.35375547  0.35260417     0.29900
F553        F  0.30019019  0.38897084  0.36741969    -0.19500
H554        H  0.33260412  0.32705957  0.39315065     0.18200
H555        H  0.32248084  0.30693028  0.28282599     0.18200
F556        F  0.35471083  0.24391691  0.30816219    -0.19500
C557        C  0.18140894  0.66693087  0.35284613    -0.20900
C558        C  0.18269032  0.67089694  0.32148986    -0.09000
C559        C  0.16837323  0.70882096  0.30772862     0.29900
C560        C  0.15057796  0.73937114  0.32501131    -0.20900
C561        C  0.14632480  0.73230704  0.35631031    -0.09000
C562        C  0.16442990  0.69775547  0.37011033     0.29900
F563        F  0.16366501  0.69092060  0.40033400    -0.19500
H564        H  0.19314777  0.63898554  0.36408650     0.18200
H565        H  0.13985948  0.76789004  0.31356927     0.18200
F566        F  0.17024883  0.71503195  0.27746281    -0.19500
C567        C  0.16279656  0.37026449  0.15008144    -0.20900
C568        C  0.17711916  0.35559279  0.17658967    -0.09000
C569        C  0.17565259  0.30846594  0.18407436     0.29900
C570        C  0.15811758  0.27796336  0.16659580    -0.20900
C571        C  0.14048782  0.29382373  0.14205813    -0.09000
C572        C  0.14546270  0.34018110  0.13272288     0.29900
F573        F  0.13467854  0.35710734  0.10630619    -0.19500
H574        H  0.16502694  0.40559200  0.14242700     0.18200
H575        H  0.15732294  0.24196877  0.17303000     0.18200
F576        F  0.19044222  0.29190804  0.20859881    -0.19500
O577        O  0.18363328  0.43060313  0.80936366    -0.74900
O578        O  0.21253543  0.37549026  0.78638268    -0.53800
C579        C  0.19124756  0.38831641  0.80435030     0.78800
O580        O  0.18755564  0.58518733  0.69209528    -0.59500
O581        O  0.21531533  0.63964168  0.71726324    -0.52600
C582        C  0.19469601  0.62717997  0.69824205     0.70800
O583        O  0.18774654  0.43095514  0.69111867    -0.74100
O584        O  0.21180840  0.37486015  0.71782509    -0.54700
C585        C  0.19333002  0.38837647  0.69714005     0.76800
O586        O  0.19003222  0.58675141  0.81331891    -0.59200
O587        O  0.21478092  0.64040338  0.78458229    -0.52400
C588        C  0.19629418  0.62869955  0.80580393     0.73400
Zr589      Zr  0.20127175  0.50830901  0.79610781     2.54700
O590        O  0.14601341  0.51287889  0.79390008    -0.79800
O591        O  0.20133949  0.50497569  0.85098500    -0.93200
Zr592      Zr  0.20278194  0.50795827  0.70687851     2.64700
O593        O  0.14740441  0.50817718  0.70696298    -0.98200
O594        O  0.20620051  0.50808523  0.65210668    -0.80200
O595        O  0.20008908  0.46300346  0.75144600    -0.83600
O596        O  0.20200348  0.55314471  0.75140346    -2.18300
O597        O  0.30835693  0.58312942  0.81070663    -0.67000
O598        O  0.28174064  0.63831277  0.78518392    -0.51500
C599        C  0.30204362  0.62540867  0.80426639     0.71800
O600        O  0.30773829  0.42579368  0.69718156    -0.59900
O601        O  0.27761544  0.37183963  0.71990085    -0.51900
C602        C  0.29966238  0.38383317  0.70264863     0.73600
O603        O  0.31179598  0.58210140  0.69473851    -0.71300
O604        O  0.28309515  0.63748768  0.71776873    -0.50000
C605        C  0.30463115  0.62445706  0.69992946     0.75000
O606        O  0.30382474  0.42640597  0.81198938    -0.66600
O607        O  0.27860173  0.37277076  0.78362323    -0.53800
C608        C  0.29740593  0.38453435  0.80439582     0.73400
Zr609      Zr  0.29130922  0.50542579  0.79702136     2.77500
O610        O  0.34659630  0.50137201  0.79613705    -0.97400
O611        O  0.29081397  0.50657600  0.85189944    -0.78200
Zr612      Zr  0.29274713  0.50527465  0.70801537     2.70100
O613        O  0.34802037  0.50203691  0.70638993    -0.79400
O614        O  0.29038440  0.50620693  0.65316663    -0.98500
Zr615      Zr  0.24514382  0.41752591  0.75190276     2.21500
Zr616      Zr  0.24820650  0.59646463  0.75141887     2.11100
O617        O  0.29323709  0.55041205  0.75247498    -2.47200
O618        O  0.29173965  0.46017114  0.75255943    -0.79200
O619        O  0.24700787  0.55205065  0.79684393    -0.71400
O620        O  0.24708234  0.46172961  0.70657829    -2.32400
O621        O  0.24552484  0.46199840  0.79729625    -2.28600
O622        O  0.24839664  0.55178070  0.70634396    -0.73200
H623        H  0.18465299  0.57346309  0.75124513     0.78800
H624        H  0.24718433  0.44203291  0.68902736     0.79900
H625        H  0.31125763  0.56949237  0.75271810     0.82100
H626        H  0.24499372  0.44229877  0.81480851     0.79700
H627        H  0.21972283  0.53443588  0.64731366     0.42800
H628        H  0.31009568  0.51962796  0.64681610     0.41700
H629        H  0.35469455  0.51786302  0.72503624     0.41400
H630        H  0.35303574  0.52725023  0.78304989     0.39400
H631        H  0.27612058  0.48220945  0.85767059     0.42500
H632        H  0.21727041  0.52724641  0.85716005     0.37300
H633        H  0.14169562  0.54097228  0.78199632     0.43400
H634        H  0.14174556  0.53194546  0.72197914     0.39800
H635        H  0.35290030  0.51084873  0.81665874     0.44700
H636        H  0.20998695  0.47442883  0.85599883     0.43400
H637        H  0.14165827  0.52173272  0.68730209     0.43600
H638        H  0.29163164  0.47340650  0.64707252     0.43900
O639        O  0.43694768  0.43303986  0.94048244    -0.74900
O640        O  0.46075038  0.37675471  0.96714157    -0.53800
C641        C  0.44241248  0.39038370  0.94643988     0.78800
O642        O  0.05280912  0.58923169  0.94130414    -0.59500
O643        O  0.02864573  0.64488224  0.96850937    -0.52600
C644        C  0.04684364  0.63178491  0.94738493     0.70800
O645        O  0.05614247  0.43409013  0.94433608    -0.74100
O646        O  0.02950311  0.37846941  0.96930360    -0.54700
C647        C  0.05013470  0.39168834  0.95054284     0.76800
O648        O  0.43282571  0.58837215  0.94559834    -0.59200
O649        O  0.46202337  0.64251360  0.96943564    -0.52400
C650        C  0.44037741  0.63028044  0.95150919     0.73400
Zr651      Zr  0.44988385  0.51084623  0.95713694     2.54700
O652        O  0.44951738  0.51425494  0.90229077    -0.79800
O653        O  0.39453199  0.50965253  0.95989258    -0.93200
Zr654      Zr  0.03998639  0.51131378  0.95811066     2.64700
O655        O  0.03837615  0.50600764  0.90334362    -0.98200
O656        O  0.09523072  0.51625583  0.95841637    -0.80200
O657        O  0.49441040  0.46524177  0.95557322    -0.83600
O658        O  0.49504579  0.55574538  0.95650995    -2.18300
O659        O  0.43507059  0.58670206  0.55794920    -0.67000
O660        O  0.46500675  0.64145707  0.53572181    -0.51500
C661        C  0.44314209  0.62874547  0.55316546     0.71800
O662        O  0.05053619  0.42851441  0.56369766    -0.59900
O663        O  0.02690104  0.37526511  0.53371209    -0.51900
C664        C  0.04448849  0.38682564  0.55561348     0.73600
O665        O  0.06023177  0.58273575  0.56054669    -0.71300
O666        O  0.03289721  0.63878598  0.53660609    -0.50000
C667        C  0.05378163  0.62516767  0.55494944     0.75000
O668        O  0.43666245  0.43263100  0.55931758    -0.66600
O669        O  0.46090157  0.37676789  0.53240692    -0.53800
C670        C  0.44156113  0.39024570  0.55241628     0.73400
Zr671      Zr  0.45204054  0.50954605  0.54456850     2.77500
O672        O  0.45288241  0.50908375  0.59945941    -0.97400
O673        O  0.39672321  0.50867114  0.54222753    -0.78200
Zr674      Zr  0.04034005  0.50687978  0.54688618     2.70100
O675        O  0.03731740  0.51152780  0.60160078    -0.79400
O676        O  0.09559820  0.50127416  0.54726238    -0.98500
Zr677      Zr  0.49599496  0.41909576  0.49966588     2.21500
Zr678      Zr  0.49843488  0.59927983  0.50190547     2.11100
O679        O  0.49751391  0.55343549  0.54663181    -2.47200
O680        O  0.49618259  0.46285408  0.54527233    -0.79200
O681        O  0.45242847  0.55565081  0.50070141    -0.71400
O682        O  0.04083051  0.46239850  0.50198235    -2.32400
O683        O  0.45099286  0.46498083  0.49975362    -2.28600
O684        O  0.04235780  0.55285140  0.50276646    -0.73200
H685        H  0.49492378  0.57606707  0.93925169     0.78800
H686        H  0.05820872  0.44207461  0.50219021     0.79900
H687        H  0.49763331  0.57270383  0.56442407     0.82100
H688        H  0.43302196  0.44573099  0.49921063     0.79700
H689        H  0.10171560  0.49293216  0.97336092     0.42800
H690        H  0.10089881  0.49542460  0.56860575     0.41700
H691        H  0.05688436  0.49881735  0.60880353     0.41400
H692        H  0.46119487  0.53959084  0.60526574     0.39400
H693        H  0.39153530  0.48145311  0.52973030     0.42500
H694        H  0.38871224  0.47666696  0.95913796     0.37300
H695        H  0.46039528  0.54316600  0.89723544     0.43400
H696        H  0.02854156  0.53492561  0.89665416     0.39800
H697        H  0.43119544  0.51034786  0.60538983     0.44700
H698        H  0.38770269  0.52230756  0.94031753     0.43400
H699        H  0.05985383  0.50924307  0.89697317     0.43600
H700        H  0.10021604  0.47194325  0.53679325     0.43900
C701        C  0.37009933  0.25692607  0.87599838    -0.02100
O702        O  0.30047532  0.08979406  0.93839777    -0.74900
O703        O  0.27659137  0.14370288  0.96754860    -0.53800
C704        C  0.29438609  0.13175804  0.94599092     0.78800
O705        O  0.18727906  0.92944337  0.94174379    -0.59500
O706        O  0.21282453  0.87514834  0.96907204    -0.52600
C707        C  0.19386832  0.88726435  0.94842618     0.70800
O708        O  0.18385543  0.08612820  0.94553844    -0.74100
O709        O  0.21016973  0.14196770  0.97070344    -0.54700
C710        C  0.18949849  0.12860372  0.95208175     0.76800
O711        O  0.30275422  0.93391768  0.93747312    -0.59200
O712        O  0.28002759  0.87879766  0.96666092    -0.52400
C713        C  0.29758231  0.89173966  0.94500120     0.73400
Zr714      Zr  0.28931063  0.01091234  0.95487386     2.54700
O715        O  0.28831312  0.01051395  0.89999219    -0.79800
O716        O  0.34463620  0.01025575  0.95702754    -0.93200
Zr717      Zr  0.19981361  0.00813907  0.95832955     2.64700
O718        O  0.19874545  0.01201587  0.90345952    -0.98200
O719        O  0.14464998  0.00464728  0.96207190    -0.80200
O720        O  0.24407480  0.05495762  0.95636522    -0.83600
O721        O  0.24499756  0.96448179  0.95614576    -2.18300
O722        O  0.30763426  0.93387210  0.56221688    -0.67000
O723        O  0.28223179  0.87921015  0.53481357    -0.51500
C724        C  0.30122653  0.89183087  0.55542814     0.71800
O725        O  0.19355602  0.09002308  0.56446034    -0.59900
O726        O  0.21745437  0.14620755  0.53767424    -0.51900
C727        C  0.19915683  0.13259038  0.55849145     0.73600
O728        O  0.18955778  0.93523482  0.56445183    -0.71300
O729        O  0.21273707  0.88026409  0.53557255    -0.50000
C730        C  0.19446489  0.89308072  0.55680351     0.75000
O731        O  0.31152942  0.08847913  0.55843685    -0.66600
O732        O  0.28458185  0.14469393  0.53474869    -0.53800
C733        C  0.30566078  0.13108221  0.55282075     0.73400
Zr734      Zr  0.29451815  0.01112977  0.54533178     2.77500
O735        O  0.29407699  0.01536353  0.60018192    -0.97400
O736        O  0.34980696  0.00742298  0.54382116    -0.78200
Zr737      Zr  0.20494980  0.01202144  0.54821860     2.70100
O738        O  0.20472746  0.01039534  0.60307506    -0.79400
O739        O  0.14971907  0.01635551  0.54675381    -0.98500
Zr740      Zr  0.24887456  0.10190455  0.50314203     2.21500
Zr741      Zr  0.24767778  0.92199741  0.50198035     2.11100
O742        O  0.24944236  0.96644635  0.54724772    -2.47200
O743        O  0.25008120  0.05692938  0.54815502    -0.79200
O744        O  0.29357894  0.96642896  0.50040822    -0.71400
O745        O  0.20288388  0.05774135  0.50418681    -2.32400
O746        O  0.29418727  0.05666042  0.50098042    -2.28600
O747        O  0.20221956  0.96675006  0.50375459    -0.73200
H748        H  0.24456983  0.94500153  0.93849500     0.78800
H749        H  0.18528250  0.07761127  0.50506835     0.79900
H750        H  0.24964348  0.94673648  0.56476416     0.82100
H751        H  0.31213871  0.07596021  0.50025876     0.79700
H752        H  0.13793734  0.99182256  0.94247298     0.42800
H753        H  0.14357293  0.99231325  0.53210802     0.41700
H754        H  0.22251003  0.99132610  0.60858511     0.41400
H755        H  0.27929648  0.99149559  0.60655688     0.39400
H756        H  0.35589730  0.00058461  0.56483190     0.42500
H757        H  0.35041214  0.04183117  0.96336946     0.37300
H758        H  0.27207382  0.03260974  0.89458518     0.43400
H759        H  0.20838767  0.04194210  0.89843717     0.39800
H760        H  0.31407206  0.00304797  0.60646305     0.44700
H761        H  0.35112618  0.00825383  0.93569902     0.43400
H762        H  0.21371100  0.98868456  0.89677454     0.43600
H763        H  0.14308216  0.00416411  0.56653340     0.43900
C764        C  0.12150000  0.75918932  0.87464262    -0.02100
O765        O  0.43716076  0.09117800  0.69654896    -0.74900
O766        O  0.46693929  0.14450492  0.72047237    -0.53800
C767        C  0.44542834  0.13296650  0.70234654     0.78800
O768        O  0.44157323  0.93278588  0.81494605    -0.59500
O769        O  0.46381156  0.87817926  0.78523466    -0.52600
C770        C  0.44640708  0.89072923  0.80714867     0.70800
O771        O  0.44175215  0.08698817  0.81394152    -0.74100
O772        O  0.46739055  0.14282865  0.78829051    -0.54700
C773        C  0.44832020  0.12947080  0.80851715     0.76800
O774        O  0.43964678  0.93569277  0.68965634    -0.59200
O775        O  0.46344620  0.87997125  0.71732530    -0.52400
C776        C  0.44525749  0.89332286  0.69636007     0.73400
Zr777      Zr  0.45273958  0.01242490  0.70844248     2.54700
O778        O  0.39744868  0.00917629  0.70958802    -0.79800
O779        O  0.45513552  0.01950325  0.65381303    -0.93200
Zr780      Zr  0.45452348  0.00957956  0.79741038     2.64700
O781        O  0.39927280  0.00660108  0.79487404    -0.98200
O782        O  0.45383617  0.00889850  0.85228227    -0.80200
O783        O  0.45300407  0.05641943  0.75364186    -0.83600
O784        O  0.45227206  0.96586000  0.75238644    -2.18300
O785        O  0.05257144  0.93572698  0.68803457    -0.67000
O786        O  0.02984120  0.88060348  0.71722264    -0.51500
C787        C  0.04783298  0.89355599  0.69586889     0.71800
O788        O  0.05872280  0.08998673  0.80715616    -0.59900
O789        O  0.02858108  0.14445654  0.78531834    -0.51900
C790        C  0.05051195  0.13210026  0.80262098     0.73600
O791        O  0.05541559  0.93446009  0.81009270    -0.71300
O792        O  0.02910867  0.87901712  0.78453433    -0.50000
C793        C  0.04856444  0.89207728  0.80456741     0.75000
O794        O  0.05051217  0.09099819  0.68841768    -0.66600
O795        O  0.02901109  0.14486456  0.71928083    -0.53800
C796        C  0.04594633  0.13290353  0.69697442     0.73400
Zr797      Zr  0.03801142  0.01281320  0.70459670     2.77500
O798        O  0.09332057  0.01536835  0.70594580    -0.97400
O799        O  0.03619947  0.01012028  0.64976509    -0.78200
Zr800      Zr  0.04267475  0.01201471  0.79329963     2.70100
O801        O  0.09740768  0.00924403  0.78509800    -0.79400
O802        O  0.04780108  0.01668405  0.84784582    -0.98500
Zr803      Zr  0.99539789  0.10116781  0.75208278     2.21500
Zr804      Zr  0.49750970  0.92053974  0.75129076     2.11100
O805        O  0.04105728  0.96710877  0.74877065    -2.47200
O806        O  0.04114747  0.05774219  0.74918953    -0.79200
O807        O  0.49711532  0.96634265  0.70671444    -0.71400
O808        O  0.99743865  0.05564537  0.79677982    -2.32400
O809        O  0.99302588  0.05765155  0.70632170    -2.28600
O810        O  0.49898722  0.96379959  0.79687957    -0.73200
H811        H  0.43433717  0.94643727  0.75247339     0.78800
H812        H  0.99819530  0.07483147  0.81457765     0.79900
H813        H  0.05879963  0.94753137  0.74796260     0.82100
H814        H  0.99210123  0.07766401  0.68896068     0.79700
H815        H  0.47173828  0.99018900  0.85799592     0.42800
H816        H  0.03176085  0.99595451  0.85575428     0.41700
H817        H  0.10193122  0.97651212  0.78059882     0.41400
H818        H  0.09928527  0.02855536  0.68622962     0.39400
H819        H  0.05511257  0.02566591  0.64312033     0.42500
H820        H  0.43415473  0.01315035  0.64685109     0.34900
H821        H  0.39135832  0.00768459  0.68812543     0.43400
H822        H  0.39260149  0.00826647  0.81616385     0.39800
H823        H  0.09818382  0.03991960  0.72072454     0.44700
H824        H  0.46703208  0.99241502  0.64709617     0.43400
H825        H  0.39328774  0.03664134  0.78612756     0.43600
H826        H  0.06713480  0.00074150  0.85241059     0.43900
C827        C  0.37306655  0.75974664  0.62626956    -0.02100
C828        C  0.11944494  0.25998586  0.62465365    -0.02100
C829        C  0.37391495  0.26062817  0.62955352    -0.02100
C830        C  0.12228903  0.75986845  0.62832626    -0.02100
C831        C  0.12057676  0.25937125  0.87809847    -0.02100
C832        C  0.37136434  0.75975762  0.87635130    -0.02100
C833        C  0.09906008  0.16177407  0.82317039    -0.20900
C834        C  0.06795021  0.16833178  0.81855713    -0.09000
C835        C  0.05421291  0.20858749  0.82991052     0.29900
C836        C  0.07082106  0.23893535  0.84837575    -0.20900
C837        C  0.10152864  0.22990979  0.85559904    -0.09000
C838        C  0.11589318  0.19296010  0.84020479     0.29900
F839        F  0.14608410  0.18480966  0.84344294    -0.19500
H840        H  0.11048574  0.13210733  0.81357810     0.18200
H841        H  0.05946680  0.26924739  0.85696086     0.18200
F842        F  0.02453989  0.21777454  0.82411666    -0.19500
C843        C  0.09215804  0.23885814  0.67548609    -0.20900
C844        C  0.09739260  0.23062917  0.64447089    -0.09000
C845        C  0.08061063  0.19439308  0.63074748     0.29900
C846        C  0.06376323  0.16354725  0.64804143    -0.20900
C847        C  0.06123713  0.16927506  0.67922814    -0.09000
C848        C  0.07439740  0.20840387  0.69272139     0.29900
F849        F  0.07123974  0.21615393  0.72273297    -0.19500
H850        H  0.10171845  0.26862529  0.68669319     0.18200
H851        H  0.05288666  0.13454628  0.63695955     0.18200
F852        F  0.08227935  0.18658899  0.60063769    -0.19500
C853        C  0.40007327  0.78469709  0.82724317    -0.20900
C854        C  0.39345362  0.79180059  0.85817325    -0.09000
C855        C  0.40659759  0.83134489  0.87202166     0.29900
C856        C  0.42404586  0.86260327  0.85540457    -0.20900
C857        C  0.43015455  0.85501428  0.82479298    -0.09000
C858        C  0.41870865  0.81504270  0.81111835     0.29900
F859        F  0.42433078  0.80619723  0.78166902    -0.19500
H860        H  0.39078147  0.75617040  0.81470467     0.18200
H861        H  0.43283995  0.89306289  0.86661220     0.18200
F862        F  0.40213749  0.84042781  0.90172516    -0.19500
C863        C  0.08102894  0.82391714  0.69498815    -0.20900
C864        C  0.06501588  0.85786013  0.67927454    -0.09000
C865        C  0.06761197  0.85972353  0.64782523     0.29900
C866        C  0.08522406  0.82733954  0.63237866    -0.20900
C867        C  0.10173570  0.79257240  0.64768263    -0.09000
C868        C  0.09989187  0.79264433  0.67981855     0.29900
F869        F  0.11703104  0.76484999  0.69741500    -0.19500
H870        H  0.08017412  0.82311057  0.71939877     0.18200
H871        H  0.08615640  0.82950694  0.60802773     0.18200
F872        F  0.05292417  0.89284664  0.63191143    -0.19500
C873        C  0.42641144  0.86189816  0.64750057    -0.20900
C874        C  0.42916204  0.85759333  0.67876863    -0.09000
C875        C  0.41514460  0.82024841  0.69315258     0.29900
C876        C  0.39720429  0.78918901  0.67682994    -0.20900
C877        C  0.39418588  0.79251965  0.64511564    -0.09000
C878        C  0.40987756  0.82951068  0.63077509     0.29900
F879        F  0.40888840  0.83492716  0.60040864    -0.19500
H880        H  0.43730561  0.89037389  0.63591070     0.18200
H881        H  0.38537797  0.76349867  0.68983618     0.18200
F882        F  0.41741086  0.81511252  0.72340217    -0.19500
C883        C  0.39662408  0.16628833  0.68609121    -0.20900
C884        C  0.42824571  0.16983533  0.68719818    -0.09000
C885        C  0.44264242  0.20704970  0.67270652     0.29900
C886        C  0.42551000  0.23825105  0.65550180    -0.20900
C887        C  0.39382915  0.23199091  0.65168484    -0.09000
C888        C  0.37955406  0.19730207  0.66930719     0.29900
F889        F  0.34898585  0.19102224  0.66855688    -0.19500
H890        H  0.38503906  0.13860460  0.69785007     0.18200
H891        H  0.43737032  0.26653434  0.64486030     0.18200
F892        F  0.47333928  0.21180833  0.67379584    -0.19500
C893        C  0.09362064  0.83673677  0.86766784    -0.20900
C894        C  0.10045234  0.79233168  0.85623922    -0.09000
C895        C  0.08472803  0.77879585  0.82970580     0.29900
C896        C  0.06778558  0.81093840  0.81294061    -0.20900
C897        C  0.06448505  0.85663101  0.82297774    -0.09000
C898        C  0.07666895  0.86848663  0.85123090     0.29900
F899        F  0.07175885  0.91071485  0.86353497    -0.19500
H900        H  0.10155726  0.84764998  0.88962008     0.18200
H901        H  0.05751494  0.80010448  0.79190029     0.18200
F902        F  0.08590185  0.73481199  0.81947256    -0.19500
C903        C  0.31579032  0.21242909  0.57109154    -0.20900
C904        C  0.32451683  0.16588919  0.56905153    -0.09000
C905        C  0.35125105  0.15210752  0.58390423     0.29900
C906        C  0.36689867  0.18256301  0.60247532    -0.20900
C907        C  0.35645968  0.22792717  0.60768314    -0.09000
C908        C  0.33191681  0.24338629  0.58959646     0.29900
F909        F  0.32283159  0.28806422  0.59041654    -0.19500
H910        H  0.29606677  0.22471371  0.55892672     0.18200
H911        H  0.38755848  0.16983732  0.61265510     0.18200
F912        F  0.36263812  0.10889061  0.58063074    -0.19500
C913        C  0.14764881  0.18297391  0.61802536    -0.20900
C914        C  0.14201318  0.22808289  0.60744625    -0.09000
C915        C  0.16057192  0.24397434  0.58338992     0.29900
C916        C  0.18002169  0.21356408  0.56796001    -0.20900
C917        C  0.18225562  0.16710316  0.57672146    -0.09000
C918        C  0.16654304  0.15280471  0.60269489     0.29900
F919        F  0.16910374  0.10921836  0.61358058    -0.19500
H920        H  0.13742400  0.17006508  0.63849729     0.18200
H921        H  0.19259578  0.22610533  0.54863139     0.18200
F922        F  0.15907271  0.28828698  0.57380998    -0.19500
C923        C  0.14299643  0.79205710  0.57669762    -0.20900
C924        C  0.14262933  0.79302290  0.60871159    -0.09000
C925        C  0.15966379  0.82880203  0.62275335     0.29900
C926        C  0.17666333  0.86036031  0.60575549    -0.20900
C927        C  0.17775082  0.85745501  0.57424061    -0.09000
C928        C  0.16072838  0.82299379  0.55986888     0.29900
F929        F  0.15968398  0.82096721  0.52936931    -0.19500
H930        H  0.12901900  0.76855520  0.56393772     0.18200
H931        H  0.18910667  0.88736140  0.61734929     0.18200
F932        F  0.15970790  0.83358717  0.65319469    -0.19500
C933        C  0.31846414  0.86218299  0.89653418    -0.20900
C934        C  0.31340365  0.85590795  0.92741935    -0.09000
C935        C  0.32507167  0.81662065  0.94149300     0.29900
C936        C  0.34334658  0.78593943  0.92551144    -0.20900
C937        C  0.34913378  0.79169573  0.89428907    -0.09000
C938        C  0.33543530  0.83028471  0.88001944     0.29900
F939        F  0.33899687  0.83780794  0.85002195    -0.19500
H940        H  0.30922352  0.89201761  0.88508604     0.18200
H941        H  0.35312570  0.75847769  0.93853949     0.18200
F942        F  0.32008351  0.80885872  0.97119831    -0.19500
C943        C  0.12640494  0.18214030  0.90632111    -0.20900
C944        C  0.13742709  0.22719236  0.90066132    -0.09000
C945        C  0.16232631  0.24221626  0.91841273     0.29900
C946        C  0.17922263  0.21045321  0.93546391    -0.20900
C947        C  0.17043941  0.16381523  0.93687566    -0.09000
C948        C  0.14282829  0.15076160  0.92339124     0.29900
F949        F  0.13139469  0.10747162  0.92660532    -0.19500
H950        H  0.10509564  0.17014857  0.89699454     0.18200
H951        H  0.19951357  0.22221095  0.94699466     0.18200
F952        F  0.17136198  0.28696599  0.91815359    -0.19500
C953        C  0.31855273  0.85944205  0.60446106    -0.20900
C954        C  0.31720918  0.85610342  0.57297736    -0.09000
C955        C  0.33377460  0.82148126  0.55853280     0.29900
C956        C  0.35157411  0.79088992  0.57516909    -0.20900
C957        C  0.35245884  0.79241180  0.60712983    -0.09000
C958        C  0.33579563  0.82825393  0.62135858     0.29900
F959        F  0.33604018  0.83293685  0.65180759    -0.19500
H960        H  0.30628446  0.88656618  0.61603221     0.18200
H961        H  0.36524170  0.76725706  0.56225440     0.18200
F962        F  0.33440884  0.81904092  0.52808364    -0.19500
C963        C  0.17637238  0.85674801  0.89901473    -0.20900
C964        C  0.17887857  0.85074136  0.93019544    -0.09000
C965        C  0.16650388  0.81061853  0.94313179     0.29900
C966        C  0.14881182  0.78019247  0.92568684    -0.20900
C967        C  0.14362131  0.78848590  0.89467947    -0.09000
C968        C  0.16029691  0.82517820  0.88131489     0.29900
F969        F  0.15931180  0.83259962  0.85112836    -0.19500
H970        H  0.18693426  0.88623872  0.88823179     0.18200
H971        H  0.13937512  0.75023071  0.93673249     0.18200
F972        F  0.17063320  0.80149384  0.97278853    -0.19500
C973        C  0.41213525  0.24117448  0.83680144    -0.20900
C974        C  0.39292461  0.22418997  0.85986381    -0.09000
C975        C  0.39792541  0.17796430  0.86932428     0.29900
C976        C  0.41662102  0.14877454  0.85291809    -0.20900
C977        C  0.43213246  0.16416009  0.82723866    -0.09000
C978        C  0.43086180  0.21140310  0.82005233     0.29900
F979        F  0.44668404  0.22861167  0.79632398    -0.19500
H980        H  0.41124575  0.27725114  0.83056596     0.18200
H981        H  0.41873298  0.11341571  0.86051715     0.18200
F982        F  0.38586475  0.16027411  0.89499307    -0.19500
C983        C  0.34226424  0.23603775  0.92626949    -0.20900
C984        C  0.34715170  0.22874252  0.89515031    -0.09000
C985        C  0.32935091  0.19435035  0.88066336     0.29900
C986        C  0.31148624  0.16405760  0.89734111    -0.20900
C987        C  0.30943913  0.16847389  0.92860907    -0.09000
C988        C  0.32366567  0.20606573  0.94287867     0.29900
F989        F  0.32098407  0.21231977  0.97309063    -0.19500
H990        H  0.35298017  0.26432085  0.93807094     0.18200
H991        H  0.29985269  0.13613816  0.88583878     0.18200
F992        F  0.33128152  0.18742581  0.85046891    -0.19500
C993        C  0.07929960  0.32180062  0.62003832    -0.20900
C994        C  0.09689064  0.28797298  0.60504459    -0.09000
C995        C  0.09193681  0.28200013  0.57368999     0.29900
C996        C  0.07354092  0.31307629  0.55783784    -0.20900
C997        C  0.05950319  0.34998842  0.57275340    -0.09000
C998        C  0.06166240  0.35317934  0.60414618     0.29900
F999        F  0.04723131  0.38731766  0.61945783    -0.19500
H1000       H  0.08099403  0.32599540  0.64424121     0.18200
H1001       H  0.07117434  0.30928826  0.53365492     0.18200
F1002       F  0.10401677  0.24622136  0.55813676    -0.19500
C1003       C  0.05512074  0.69253926  0.58948148    -0.20900
C1004       C  0.07093117  0.66067350  0.57185562    -0.09000
C1005       C  0.10279118  0.66085643  0.57262700     0.29900
C1006       C  0.11840036  0.69333809  0.59022091    -0.20900
C1007       C  0.10289362  0.72666274  0.60789388    -0.09000
C1008       C  0.07048306  0.72416833  0.60787401     0.29900
F1009       F  0.05292717  0.74922092  0.62684077    -0.19500
H1010       H  0.03052248  0.69138767  0.59018469     0.18200
H1011       H  0.14302369  0.69247432  0.59020221     0.18200
F1012       F  0.11888211  0.62983121  0.55619266    -0.19500
C1013       C  0.42443017  0.72992403  0.60357128    -0.20900
C1014       C  0.39226797  0.72749858  0.60548735    -0.09000
C1015       C  0.37757087  0.69230701  0.58860658     0.29900
C1016       C  0.39423082  0.66118572  0.57121878    -0.20900
C1017       C  0.42592136  0.66448050  0.56942941    -0.09000
C1018       C  0.44088159  0.69965943  0.58522850     0.29900
F1019       F  0.47163446  0.70330417  0.58420546    -0.19500
H1020       H  0.43751518  0.75446906  0.61645784     0.18200
H1021       H  0.38227386  0.63426551  0.55905238     0.18200
F1022       F  0.34681648  0.68819397  0.58873814    -0.19500
C1023       C  0.07365113  0.65299971  0.89996015    -0.20900
C1024       C  0.06218672  0.66694493  0.92800247    -0.09000
C1025       C  0.06619435  0.71338323  0.93656712     0.29900
C1026       C  0.08373534  0.74342226  0.91858617    -0.20900
C1027       C  0.09895855  0.72747770  0.89245228    -0.09000
C1028       C  0.09097944  0.68260822  0.88215852     0.29900
F1029       F  0.09979452  0.66634438  0.85485379    -0.19500
H1030       H  0.06936230  0.61845807  0.89160357     0.18200
H1031       H  0.08659740  0.77877529  0.92594199     0.18200
F1032       F  0.05418431  0.72944155  0.96271070    -0.19500
C1033       C  0.39172231  0.65954751  0.93058138    -0.20900
C1034       C  0.42284231  0.66624468  0.93573679    -0.09000
C1035       C  0.43724899  0.70476849  0.92313910     0.29900
C1036       C  0.42108454  0.73480102  0.90444822    -0.20900
C1037       C  0.38964313  0.72836775  0.89856329    -0.09000
C1038       C  0.37526178  0.69007078  0.91262345     0.29900
F1039       F  0.34508084  0.68185462  0.90884371    -0.19500
H1040       H  0.38009580  0.63008080  0.94026583     0.18200
H1041       H  0.43401316  0.76230235  0.89433533     0.18200
F1042       F  0.46747089  0.71191931  0.92734711    -0.19500
C1043       C  0.05868954  0.31057847  0.93155394    -0.20900
C1044       C  0.06868948  0.35643028  0.93469170    -0.09000
C1045       C  0.09680081  0.36884914  0.92197511     0.29900
C1046       C  0.11318431  0.33739772  0.90489297    -0.20900
C1047       C  0.10193618  0.29265992  0.89859166    -0.09000
C1048       C  0.07534085  0.27874072  0.91425223     0.29900
F1049       F  0.06491594  0.23476027  0.91239910    -0.19500
H1050       H  0.03765462  0.29951864  0.94201378     0.18200
H1051       H  0.13496842  0.34894069  0.89645770     0.18200
F1052       F  0.10889250  0.41156238  0.92608202    -0.19500
C1053       C  0.38097682  0.33881199  0.60267215    -0.20900
C1054       C  0.39175676  0.29369964  0.60822189    -0.09000
C1055       C  0.41672658  0.27858488  0.59054696     0.29900
C1056       C  0.43275373  0.30954943  0.57203070    -0.20900
C1057       C  0.42335192  0.35560496  0.56929588    -0.09000
C1058       C  0.39639821  0.36915199  0.58386329     0.29900
F1059       F  0.38441865  0.41183715  0.57974605    -0.19500
H1060       H  0.36007953  0.35126223  0.61254416     0.18200
H1061       H  0.45278208  0.29759641  0.56019511     0.18200
F1062       F  0.42614755  0.23409503  0.59152756    -0.19500
C1063       C  0.42555120  0.30840636  0.93598066    -0.20900
C1064       C  0.42617008  0.35533552  0.92791117    -0.09000
C1065       C  0.41107631  0.36879032  0.90144954     0.29900
C1066       C  0.39444342  0.33706944  0.88476301    -0.20900
C1067       C  0.39061266  0.29089193  0.89430139    -0.09000
C1068       C  0.40855886  0.27636068  0.91909311     0.29900
F1069       F  0.40934698  0.23139052  0.92743666    -0.19500
H1070       H  0.43794204  0.29648479  0.95556297     0.18200
H1071       H  0.38472518  0.34959182  0.86397290     0.18200
F1072       F  0.41250088  0.41280848  0.89110684    -0.19500
C1073       C  0.35074167  0.65534558  0.82530608    -0.20900
C1074       C  0.31962517  0.66151544  0.82008314    -0.09000
C1075       C  0.30546352  0.70136704  0.83104276     0.29900
C1076       C  0.32173967  0.73293139  0.84862030    -0.20900
C1077       C  0.35319649  0.72713866  0.85462523    -0.09000
C1078       C  0.36745841  0.68784308  0.84171258     0.29900
F1079       F  0.39767337  0.68022018  0.84546681    -0.19500
H1080       H  0.36223317  0.62513407  0.81656698     0.18200
H1081       H  0.30883454  0.76116355  0.85774197     0.18200
F1082       F  0.27538821  0.70873879  0.82612000    -0.19500
C1083       C  0.18897042  0.31519807  0.83458299    -0.20900
C1084       C  0.17404882  0.35211493  0.82045819    -0.09000
C1085       C  0.14234426  0.35445098  0.82192271     0.29900
C1086       C  0.12611152  0.32255836  0.83899582    -0.20900
C1087       C  0.14090625  0.28826188  0.85632436    -0.09000
C1088       C  0.17267804  0.28305284  0.85199002     0.29900
F1089       F  0.18814294  0.24659372  0.86328433    -0.19500
H1090       H  0.21339866  0.31165257  0.83251958     0.18200
H1091       H  0.10164218  0.32626935  0.84006443     0.18200
F1092       F  0.12695426  0.38756420  0.80664960    -0.19500
C1093       C  0.34918529  0.35342866  0.68635560    -0.20900
C1094       C  0.31771608  0.34756817  0.68796502    -0.09000
C1095       C  0.30425899  0.30929575  0.67376305     0.29900
C1096       C  0.32192176  0.28026040  0.65550362    -0.20900
C1097       C  0.35337092  0.28868993  0.65138190    -0.09000
C1098       C  0.36691006  0.32386788  0.66912557     0.29900
F1099       F  0.39729117  0.33201737  0.66803103    -0.19500
H1100       H  0.36009975  0.38185919  0.69802037     0.18200
H1101       H  0.31073575  0.25150985  0.64462843     0.18200
F1102       F  0.27393619  0.30126300  0.67630281    -0.19500
C1103       C  0.14544525  0.65870200  0.68063461    -0.20900
C1104       C  0.17709608  0.66297901  0.68237440    -0.09000
C1105       C  0.19140825  0.69922419  0.66710248     0.29900
C1106       C  0.17431410  0.73003051  0.64970527    -0.20900
C1107       C  0.14211111  0.72717692  0.64829920    -0.09000
C1108       C  0.12814324  0.69026942  0.66424798     0.29900
F1109       F  0.09747478  0.68490731  0.66434006    -0.19500
H1110       H  0.13397635  0.63071908  0.69220137     0.18200
H1111       H  0.18700089  0.75525987  0.63707230     0.18200
F1112       F  0.22213077  0.70343017  0.66765029    -0.19500
C1113       C  0.30621980  0.69427619  0.66725903    -0.20900
C1114       C  0.32191990  0.66043623  0.68331345    -0.09000
C1115       C  0.35372799  0.65898107  0.68095764     0.29900
C1116       C  0.36933804  0.69147185  0.66330261    -0.20900
C1117       C  0.35391232  0.72643914  0.64698536    -0.09000
C1118       C  0.32150676  0.72561277  0.64856997     0.29900
F1119       F  0.30367109  0.75201122  0.63075993    -0.19500
H1120       H  0.28161738  0.69469360  0.66773826     0.18200
H1121       H  0.39389246  0.68918441  0.66214134     0.18200
F1122       F  0.36979934  0.62623609  0.69586860    -0.19500
C1123       C  0.32912461  0.31734101  0.86930580    -0.20900
C1124       C  0.34847786  0.28496197  0.85501806    -0.09000
C1125       C  0.34608624  0.28079919  0.82319609     0.29900
C1126       C  0.32864548  0.31249430  0.80669288    -0.20900
C1127       C  0.31258661  0.34767233  0.82140698    -0.09000
C1128       C  0.31182162  0.34847300  0.85286052     0.29900
F1129       F  0.29442985  0.37972796  0.86774660    -0.19500
H1130       H  0.32876319  0.32020082  0.89364514     0.18200
H1131       H  0.32818712  0.31015214  0.78232331     0.18200
F1132       F  0.35923385  0.24579260  0.80776444    -0.19500
C1133       C  0.17721815  0.66121451  0.85416131    -0.20900
C1134       C  0.18066714  0.66565291  0.82295580    -0.09000
C1135       C  0.16762198  0.70394055  0.80850625     0.29900
C1136       C  0.14991780  0.73562341  0.82486419    -0.20900
C1137       C  0.14398641  0.72905080  0.85590217    -0.09000
C1138       C  0.15986291  0.69277291  0.87053228     0.29900
F1139       F  0.15672167  0.68548779  0.90058380    -0.19500
H1140       H  0.18757398  0.63252145  0.86592281     0.18200
H1141       H  0.14059678  0.76471931  0.81286172     0.18200
F1142       F  0.17056468  0.70932969  0.77826455    -0.19500
C1143       C  0.16405163  0.36859512  0.65109409    -0.20900
C1144       C  0.17725066  0.35372850  0.67813696    -0.09000
C1145       C  0.17465125  0.30679823  0.68586439     0.29900
C1146       C  0.15703101  0.27685862  0.66802312    -0.20900
C1147       C  0.14053322  0.29317631  0.64281621    -0.09000
C1148       C  0.14668544  0.33907928  0.63338052     0.29900
F1149       F  0.13687498  0.35609065  0.60662150    -0.19500
H1150       H  0.16725228  0.40366174  0.64326574     0.18200
H1151       H  0.15533182  0.24099119  0.67460100     0.18200
F1152       F  0.18843776  0.28993074  0.71087426    -0.19500
O1153       O  0.68135813  0.42996207  0.30514344    -0.74900
O1154       O  0.71162159  0.37556691  0.28311699    -0.53800
C1155       C  0.68966496  0.38785859  0.30039346     0.78800
O1156       O  0.68528453  0.58534757  0.19037905    -0.59500
O1157       O  0.71373095  0.63949689  0.21509836    -0.52600
C1158       C  0.69275092  0.62719720  0.19639315     0.70800
O1159       O  0.68766079  0.43216012  0.18831089    -0.74100
O1160       O  0.71053800  0.37613812  0.21601435    -0.54700
C1161       C  0.69252863  0.38970930  0.19498735     0.76800
O1162       O  0.68714823  0.58727069  0.30964561    -0.59200
O1163       O  0.71243275  0.64134452  0.28169776    -0.52400
C1164       C  0.69348393  0.62936161  0.30237978     0.73400
Zr1165     Zr  0.69929247  0.50831375  0.29342197     2.54700
O1166       O  0.64405794  0.51386380  0.29154922    -0.79800
O1167       O  0.69967633  0.50238980  0.34812443    -0.93200
Zr1168     Zr  0.70205451  0.50875163  0.20431945     2.64700
O1169       O  0.64675389  0.50414226  0.20382411    -0.98200
O1170       O  0.70520883  0.51174746  0.14954914    -0.80200
O1171       O  0.69915494  0.46346825  0.24864163    -0.83600
O1172       O  0.70037035  0.55343690  0.24895897    -2.18300
O1173       O  0.80792029  0.58314378  0.30878933    -0.67000
O1174       O  0.78077549  0.63839945  0.28388919    -0.51500
C1175       C  0.80157805  0.62546442  0.30257936     0.71800
O1176       O  0.80824218  0.42705495  0.19583241    -0.59900
O1177       O  0.77646560  0.37359614  0.21678629    -0.51900
C1178       C  0.79925477  0.38525856  0.20043921     0.73600
O1179       O  0.81023754  0.58314592  0.19359382    -0.71300
O1180       O  0.78119053  0.63801694  0.21681877    -0.50000
C1181       C  0.80281081  0.62525399  0.19912859     0.75000
O1182       O  0.80284734  0.42727394  0.30983010    -0.66600
O1183       O  0.77838493  0.37349755  0.28098394    -0.53800
C1184       C  0.79699620  0.38534819  0.30195884     0.73400
Zr1185     Zr  0.78955589  0.50613639  0.29537626     2.77500
O1186       O  0.84485723  0.50368047  0.29394554    -0.97400
O1187       O  0.78854495  0.50768693  0.35022651    -0.78200
Zr1188     Zr  0.79201399  0.50609140  0.20652720     2.70100
O1189       O  0.84735896  0.50606052  0.20702162    -0.79400
O1190       O  0.79057268  0.50510249  0.15166388    -0.98500
Zr1191     Zr  0.74437103  0.41838032  0.24955405     2.21500
Zr1192     Zr  0.74650448  0.59691631  0.24985115     2.11100
O1193       O  0.79153433  0.55111923  0.25099136    -2.47200
O1194       O  0.79081246  0.46091968  0.25093725    -0.79200
O1195       O  0.74494184  0.55233687  0.29513001    -0.71400
O1196       O  0.74643991  0.46262861  0.20429866    -2.32400
O1197       O  0.74384181  0.46249454  0.29505054    -2.28600
O1198       O  0.74761347  0.55263598  0.20453821    -0.73200
H1199       H  0.68285174  0.57342691  0.24870338     0.78800
H1200       H  0.74676665  0.44299704  0.18671861     0.79900
H1201       H  0.80952525  0.57025918  0.25140912     0.82100
H1202       H  0.74317511  0.44263700  0.31248960     0.79700
H1203       H  0.68380482  0.51319813  0.14270362     0.42800
H1204       H  0.81201130  0.50967488  0.14550962     0.41700
H1205       H  0.85286022  0.51802377  0.22721188     0.41400
H1206       H  0.85095261  0.49759866  0.31504926     0.39400
H1207       H  0.77432755  0.48264966  0.35593610     0.42500
H1208       H  0.67956784  0.51418336  0.35449977     0.37300
H1209       H  0.63810730  0.52529060  0.31174131     0.43400
H1210       H  0.63993664  0.53028092  0.21649348     0.39800
H1211       H  0.84975666  0.47484944  0.28300577     0.44700
H1212       H  0.71430077  0.52634588  0.35476210     0.43400
H1213       H  0.64086385  0.51283275  0.18305917     0.43600
H1214       H  0.78602656  0.47267257  0.14624259     0.43900
O1215       O  0.93700501  0.43453946  0.43929115    -0.74900
O1216       O  0.96061284  0.37807370  0.46607269    -0.53800
C1217       C  0.94226574  0.39184559  0.44531575     0.78800
O1218       O  0.55699733  0.58820097  0.44292989    -0.59500
O1219       O  0.53130192  0.64382018  0.46876052    -0.52600
C1220       C  0.55058886  0.63071028  0.44870323     0.70800
O1221       O  0.55768194  0.43173177  0.44326893    -0.74100
O1222       O  0.53069359  0.37583296  0.46753638    -0.54700
C1223       C  0.55158840  0.38918919  0.44913528     0.76800
O1224       O  0.93435420  0.58862381  0.44640858    -0.59200
O1225       O  0.96376586  0.64288113  0.46981090    -0.52400
C1226       C  0.94193830  0.63054965  0.45210144     0.73400
Zr1227     Zr  0.95156374  0.51106968  0.45701066     2.54700
O1228       O  0.95313904  0.51794584  0.40238591    -0.79800
O1229       O  0.89624081  0.50733804  0.45717558    -0.93200
Zr1230     Zr  0.54244389  0.50971600  0.45695271     2.64700
O1231       O  0.54014840  0.51122641  0.40215800    -0.98200
O1232       O  0.59781003  0.50961322  0.45618569    -0.80200
O1233       O  0.99584994  0.46481900  0.45578304    -0.83600
O1234       O  0.99715098  0.55490821  0.45710972    -2.18300
O1235       O  0.93343139  0.58788245  0.05980831    -0.67000
O1236       O  0.96280248  0.64285892  0.03705211    -0.51500
C1237       C  0.94121448  0.62992690  0.05479584     0.71800
O1238       O  0.55177163  0.42999209  0.06175087    -0.59900
O1239       O  0.52718761  0.37639404  0.03275257    -0.51900
C1240       C  0.54550572  0.38824458  0.05391916     0.73600
O1241       O  0.56031055  0.58472987  0.05736527    -0.71300
O1242       O  0.53076891  0.64022440  0.03567535    -0.50000
C1243       C  0.55283135  0.62700852  0.05268657     0.75000
O1244       O  0.93539802  0.43356891  0.06119704    -0.66600
O1245       O  0.96054852  0.37786075  0.03498975    -0.53800
C1246       C  0.94081169  0.39115143  0.05461221     0.73400
Zr1247     Zr  0.95077461  0.51101183  0.04700217     2.77500
O1248       O  0.95406761  0.51453884  0.10173790    -0.97400
O1249       O  0.89542892  0.50976298  0.04810471    -0.78200
Zr1250     Zr  0.54033921  0.50827103  0.04551230     2.70100
O1251       O  0.53767006  0.51478242  0.10015789    -0.79400
O1252       O  0.59549450  0.50062130  0.04569348    -0.98500
Zr1253     Zr  0.99471952  0.42081941  0.00200002     2.21500
Zr1254     Zr  0.99631407  0.60095761  0.00302975     2.11100
O1255       O  0.99588352  0.55579351  0.04808585    -2.47200
O1256       O  0.99505852  0.46479290  0.04754322    -0.79200
O1257       O  0.95052432  0.55638813  0.00274447    -0.71400
O1258       O  0.53995608  0.46416803  0.00061789    -2.32400
O1259       O  0.94933579  0.46588866  0.00251475    -2.28600
O1260       O  0.54135340  0.55412457  0.00131379    -0.73200
H1261       H  0.99731568  0.57481493  0.43963137     0.78800
H1262       H  0.55751980  0.44420872  0.00059773     0.79900
H1263       H  0.99603249  0.57529812  0.06575817     0.82100
H1264       H  0.93138907  0.44656620  0.00244774     0.79700
H1265       H  0.60377888  0.53553092  0.46949447     0.42800
H1266       H  0.60262021  0.52254897  0.03010925     0.41700
H1267       H  0.55695934  0.50121488  0.10742310     0.41400
H1268       H  0.93264251  0.51476507  0.10860045     0.39400
H1269       H  0.88924849  0.52997516  0.03121389     0.42500
H1270       H  0.89017650  0.51876195  0.43703364     0.37300
H1271       H  0.97426745  0.50973294  0.39692859     0.43400
H1272       H  0.56138121  0.50595329  0.39560811     0.39800
H1273       H  0.96183785  0.48390846  0.10782690     0.44700
H1274       H  0.88985571  0.53199149  0.47126144     0.43400
H1275       H  0.52923214  0.48255953  0.39657080     0.43600
H1276       H  0.60207415  0.51457631  0.06500927     0.43900
C1277       C  0.86936294  0.25819450  0.37483063    -0.02100
O1278       O  0.80031491  0.08844241  0.43688770    -0.74900
O1279       O  0.77821289  0.14248747  0.46720843    -0.53800
C1280       C  0.79501854  0.13048339  0.44489806     0.78800
O1281       O  0.68750021  0.92851163  0.44370515    -0.59500
O1282       O  0.71442257  0.87424976  0.46973589    -0.52600
C1283       C  0.69491739  0.88641423  0.44959366     0.70800
O1284       O  0.68512838  0.08450214  0.44566901    -0.74100
O1285       O  0.71149618  0.14086003  0.47023769    -0.54700
C1286       C  0.69092325  0.12716815  0.45158074     0.76800
O1287       O  0.80302038  0.93195219  0.43764394    -0.59200
O1288       O  0.78108365  0.87709168  0.46765956    -0.52400
C1289       C  0.79820966  0.88977079  0.44557436     0.73400
Zr1290     Zr  0.78945826  0.00975544  0.45411086     2.54700
O1291       O  0.78398232  0.00892819  0.39950804    -0.79800
O1292       O  0.84474078  0.01282106  0.45118740    -0.93200
Zr1293     Zr  0.70015194  0.00687072  0.46049630     2.64700
O1294       O  0.69630199  0.00455987  0.40576918    -0.98200
O1295       O  0.64544215  0.00544346  0.46860079    -0.80200
O1296       O  0.74425244  0.05379630  0.45669776    -0.83600
O1297       O  0.74528111  0.96334791  0.45721319    -2.18300
O1298       O  0.80518455  0.93336123  0.06224649    -0.67000
O1299       O  0.78082345  0.87894381  0.03378749    -0.51500
C1300       C  0.79899308  0.89139192  0.05518041     0.71800
O1301       O  0.69251238  0.08675933  0.06666408    -0.59900
O1302       O  0.71496742  0.14318245  0.03891139    -0.51900
C1303       C  0.69744843  0.12938246  0.06033655     0.73600
O1304       O  0.69001658  0.93255100  0.06341648    -0.71300
O1305       O  0.71313384  0.87854396  0.03370310    -0.50000
C1306       C  0.69530170  0.89072084  0.05535398     0.75000
O1307       O  0.80922940  0.08725900  0.05834982    -0.66600
O1308       O  0.78217783  0.14355326  0.03496922    -0.53800
C1309       C  0.80323319  0.12980941  0.05294088     0.73400
Zr1310     Zr  0.79338121  0.01012121  0.04407425     2.77500
O1311       O  0.79731596  0.01169265  0.09882298    -0.97400
O1312       O  0.84834233  0.00494563  0.03854188    -0.78200
Zr1313     Zr  0.70367280  0.01009320  0.04784313     2.70100
O1314       O  0.70342507  0.00599934  0.10262732    -0.79400
O1315       O  0.64846046  0.01451731  0.04560651    -0.98500
Zr1316     Zr  0.74668753  0.10076422  0.00358403     2.21500
Zr1317     Zr  0.74679354  0.92188168  0.00039025     2.11100
O1318       O  0.74840716  0.96544957  0.04593050    -2.47200
O1319       O  0.74868332  0.05511790  0.04809739    -0.79200
O1320       O  0.79247663  0.96637696  0.99886108    -0.71400
O1321       O  0.70080264  0.05658511  0.00431270    -2.32400
O1322       O  0.79239629  0.05677204  0.00028820    -2.28600
O1323       O  0.70097477  0.96590018  0.00288595    -0.73200
H1324       H  0.74445494  0.94377287  0.43961613     0.78800
H1325       H  0.68313895  0.07625985  0.00561115     0.79900
H1326       H  0.74870736  0.94559711  0.06337048     0.82100
H1327       H  0.81007841  0.07662601  0.99957855     0.79700
H1328       H  0.64229494  0.98121583  0.48400895     0.42800
H1329       H  0.64244097  0.98965752  0.03149504     0.41700
H1330       H  0.72413222  0.99546185  0.10796876     0.41400
H1331       H  0.81884324  0.01960854  0.10289531     0.39400
H1332       H  0.85472596  0.03580633  0.03135611     0.42500
H1333       H  0.85170801  0.98695292  0.46397563     0.37300
H1334       H  0.76945870  0.03408889  0.39511181     0.43400
H1335       H  0.67541922  0.01523797  0.40131521     0.39800
H1336       H  0.78574567  0.03933111  0.10512832     0.44700
H1337       H  0.85053361  0.04088309  0.46257930     0.43400
H1338       H  0.70965980  0.02987323  0.39870705     0.43600
H1339       H  0.64156742  0.00356221  0.06560579     0.43900
C1340       C  0.62255619  0.75976216  0.37496145    -0.02100
O1341       O  0.93520453  0.09118555  0.19796808    -0.74900
O1342       O  0.96489000  0.14515229  0.22128256    -0.53800
C1343       C  0.94307492  0.13314874  0.20365761     0.78800
O1344       O  0.94371370  0.93315183  0.31718158    -0.59500
O1345       O  0.96419433  0.87885464  0.28598373    -0.52600
C1346       C  0.94781472  0.89112440  0.30872463     0.70800
O1347       O  0.94115211  0.08822011  0.31311851    -0.74100
O1348       O  0.96681545  0.14404026  0.28744636    -0.54700
C1349       C  0.94759487  0.13073032  0.30750765     0.76800
O1350       O  0.93805545  0.93577457  0.19070391    -0.59200
O1351       O  0.96311842  0.88011414  0.21733875    -0.52400
C1352       C  0.94426368  0.89345463  0.19689595     0.73400
Zr1353     Zr  0.95103563  0.01246195  0.20951240     2.54700
O1354       O  0.89606103  0.01048613  0.21612808    -0.79800
O1355       O  0.94745281  0.01962377  0.15492040    -0.93200
Zr1356     Zr  0.95461826  0.01018155  0.29797702     2.64700
O1357       O  0.89952893  0.00614336  0.29252772    -0.98200
O1358       O  0.95213415  0.01274070  0.35278499    -0.80200
O1359       O  0.95253388  0.05689887  0.25430723    -0.83600
O1360       O  0.95179939  0.96559313  0.25331717    -2.18300
O1361       O  0.55157518  0.93573151  0.18562808    -0.67000
O1362       O  0.52996513  0.88049331  0.21556407    -0.51500
C1363       C  0.54720091  0.89360472  0.19364169     0.71800
O1364       O  0.56233227  0.08847201  0.30419769    -0.59900
O1365       O  0.53133936  0.14281981  0.28330603    -0.51900
C1366       C  0.55374272  0.13042193  0.29995761     0.73600
O1367       O  0.55606110  0.93372597  0.30980498    -0.71300
O1368       O  0.52961981  0.87831191  0.28440776    -0.50000
C1369       C  0.54877809  0.89138641  0.30477535     0.75000
O1370       O  0.55011162  0.09160403  0.18703132    -0.66600
O1371       O  0.52901689  0.14504618  0.21849251    -0.53800
C1372       C  0.54552231  0.13342085  0.19590322     0.73400
Zr1373     Zr  0.53796004  0.01277260  0.20283627     2.77500
O1374       O  0.59330963  0.01583708  0.20198044    -0.97400
O1375       O  0.53457326  0.01219518  0.14802546    -0.78200
Zr1376     Zr  0.54480033  0.01098989  0.29159184     2.70100
O1377       O  0.59966963  0.00438573  0.28544299    -0.79400
O1378       O  0.54879422  0.01769298  0.34615842    -0.98500
Zr1379     Zr  0.49659219  0.10060066  0.25134155     2.21500
Zr1380     Zr  0.99732992  0.92091646  0.25143969     2.11100
O1381       O  0.54203025  0.96651129  0.24686560    -2.47200
O1382       O  0.54226244  0.05698061  0.24754231    -0.79200
O1383       O  0.99572991  0.96688887  0.20679495    -0.71400
O1384       O  0.50005670  0.05569819  0.29617118    -2.32400
O1385       O  0.49303362  0.05743832  0.20561344    -2.28600
O1386       O  0.99947210  0.96531816  0.29665579    -0.73200
H1387       H  0.93403215  0.94591117  0.25378341     0.78800
H1388       H  0.50132228  0.07509265  0.31384779     0.79900
H1389       H  0.55963036  0.94671186  0.24558938     0.82100
H1390       H  0.49166408  0.07743931  0.18827254     0.79700
H1391       H  0.96671762  0.03720216  0.35869796     0.42800
H1392       H  0.53641469  0.99189653  0.35416323     0.41700
H1393       H  0.60274869  0.97649514  0.27292577     0.41400
H1394       H  0.59899299  0.02855444  0.22191992     0.39400
H1395       H  0.52340582  0.98350077  0.14299207     0.42500
H1396       H  0.93155050  0.99735104  0.14868470     0.34900
H1397       H  0.88799306  0.03083338  0.20011316     0.43400
H1398       H  0.89390115  0.97435320  0.29850240     0.39800
H1399       H  0.59998113  0.98326895  0.20272140     0.44700
H1400       H  0.96667178  0.00629184  0.14728843     0.43400
H1401       H  0.89152588  0.02583449  0.30893883     0.43600
H1402       H  0.57007161  0.00912161  0.35075678     0.43900
C1403       C  0.87065591  0.76111688  0.12735593    -0.02100
C1404       C  0.61820262  0.26058153  0.12410575    -0.02100
C1405       C  0.87221586  0.25878976  0.12880512    -0.02100
C1406       C  0.62186585  0.76054912  0.12613349    -0.02100
C1407       C  0.62237839  0.25769630  0.37612413    -0.02100
C1408       C  0.87203512  0.75825556  0.37608866    -0.02100
C1409       C  0.60219716  0.16328070  0.31842673    -0.20900
C1410       C  0.57064940  0.16659934  0.31609876    -0.09000
C1411       C  0.55552233  0.20290288  0.33074691     0.29900
C1412       C  0.57170435  0.23360346  0.34920990    -0.20900
C1413       C  0.60326043  0.22812328  0.35379095    -0.09000
C1414       C  0.61841587  0.19413282  0.33628056     0.29900
F1415       F  0.64900556  0.18870703  0.33798383    -0.19500
H1416       H  0.61434070  0.13616312  0.30670386     0.18200
H1417       H  0.55927152  0.26122906  0.35986953     0.18200
F1418       F  0.52489160  0.20730822  0.32838536    -0.19500
C1419       C  0.59167673  0.23927309  0.17521326    -0.20900
C1420       C  0.59555888  0.23248651  0.14389904    -0.09000
C1421       C  0.57737392  0.19810436  0.12986017     0.29900
C1422       C  0.56079645  0.16680461  0.14701155    -0.20900
C1423       C  0.56015454  0.17039964  0.17838558    -0.09000
C1424       C  0.57431963  0.20832062  0.19234839     0.29900
F1425       F  0.57270801  0.21417122  0.22266660    -0.19500
H1426       H  0.60219109  0.26792010  0.18679643     0.18200
H1427       H  0.54892000  0.13891789  0.13572188     0.18200
F1428       F  0.57792225  0.19198685  0.09952726    -0.19500
C1429       C  0.90131762  0.78451109  0.32758116    -0.20900
C1430       C  0.89414381  0.79105735  0.35840262    -0.09000
C1431       C  0.90711212  0.83040712  0.37275894     0.29900
C1432       C  0.92493016  0.86195330  0.35669747    -0.20900
C1433       C  0.93153435  0.85496461  0.32612628    -0.09000
C1434       C  0.92030728  0.81510900  0.31201728     0.29900
F1435       F  0.92651989  0.80657515  0.28262726    -0.19500
H1436       H  0.89224416  0.75616419  0.31472644     0.18200
H1437       H  0.93359134  0.89214724  0.36830301     0.18200
F1438       F  0.90244204  0.83870832  0.40253566    -0.19500
C1439       C  0.58168347  0.82594026  0.19264911    -0.20900
C1440       C  0.56439930  0.85827017  0.17689281    -0.09000
C1441       C  0.56643131  0.85970970  0.14538149     0.29900
C1442       C  0.58496092  0.82846017  0.12996163    -0.20900
C1443       C  0.60173930  0.79402955  0.14531096    -0.09000
C1444       C  0.60077390  0.79517424  0.17745820     0.29900
F1445       F  0.61936564  0.76949415  0.19498950    -0.19500
H1446       H  0.58161061  0.82607339  0.21708061     0.18200
H1447       H  0.58570967  0.83033063  0.10558789     0.18200
F1448       F  0.55012386  0.89098784  0.12941703    -0.19500
C1449       C  0.92559180  0.86138740  0.14806454    -0.20900
C1450       C  0.92780536  0.85790876  0.17945791    -0.09000
C1451       C  0.91217265  0.82244129  0.19420494     0.29900
C1452       C  0.89383621  0.79178444  0.17799797    -0.20900
C1453       C  0.89171689  0.79391077  0.14614996    -0.09000
C1454       C  0.90822886  0.82971212  0.13155204     0.29900
F1455       F  0.90743649  0.83424954  0.10110327    -0.19500
H1456       H  0.93740007  0.88878956  0.13625708     0.18200
H1457       H  0.88091451  0.76744707  0.19113845     0.18200
F1458       F  0.91316807  0.81905102  0.22464394    -0.19500
C1459       C  0.89411712  0.16366969  0.18513332    -0.20900
C1460       C  0.92549416  0.16947777  0.18836684    -0.09000
C1461       C  0.93963512  0.20785019  0.17498647     0.29900
C1462       C  0.92291933  0.23745529  0.15633411    -0.20900
C1463       C  0.89168634  0.22954921  0.15086680    -0.09000
C1464       C  0.87725592  0.19383473  0.16747762     0.29900
F1465       F  0.84692693  0.18585945  0.16484997    -0.19500
H1466       H  0.88262754  0.13497661  0.19591370     0.18200
H1467       H  0.93467937  0.26632095  0.14625351     0.18200
F1468       F  0.96986845  0.21542914  0.17865808    -0.19500
C1469       C  0.59497764  0.83793555  0.36801438    -0.20900
C1470       C  0.60053730  0.79265724  0.35746965    -0.09000
C1471       C  0.58283341  0.77790894  0.33245502     0.29900
C1472       C  0.56570589  0.80959276  0.31550951    -0.20900
C1473       C  0.56401815  0.85615999  0.32408425    -0.09000
C1474       C  0.57754743  0.86919700  0.35157788     0.29900
F1475       F  0.57377832  0.91226807  0.36301763    -0.19500
H1476       H  0.60418465  0.84991080  0.38922344     0.18200
H1477       H  0.55419607  0.79772870  0.29535677     0.18200
F1478       F  0.58262519  0.73319558  0.32359461    -0.19500
C1479       C  0.81362306  0.21102458  0.07074943    -0.20900
C1480       C  0.82217921  0.16442263  0.06894668    -0.09000
C1481       C  0.84921356  0.15064201  0.08320477     0.29900
C1482       C  0.86543607  0.18139018  0.10098570    -0.20900
C1483       C  0.85492231  0.22665139  0.10647940    -0.09000
C1484       C  0.83022872  0.24215094  0.08864349     0.29900
F1485       F  0.82141994  0.28695520  0.08917414    -0.19500
H1486       H  0.79372627  0.22325032  0.05883457     0.18200
H1487       H  0.88636136  0.16880373  0.11070574     0.18200
F1488       F  0.86028896  0.10717591  0.08018590    -0.19500
C1489       C  0.64366943  0.18085369  0.11764728    -0.20900
C1490       C  0.64077241  0.22717684  0.10805938    -0.09000
C1491       C  0.66184908  0.24259065  0.08605720     0.29900
C1492       C  0.68110037  0.21125078  0.07123508    -0.20900
C1493       C  0.68055207  0.16403962  0.07852282    -0.09000
C1494       C  0.66220384  0.14967832  0.10273491     0.29900
F1495       F  0.66157541  0.10511592  0.11216062    -0.19500
H1496       H  0.63164205  0.16756952  0.13700125     0.18200
H1497       H  0.69583255  0.22385520  0.05349021     0.18200
F1498       F  0.66329711  0.28768428  0.07812317    -0.19500
C1499       C  0.64425857  0.79007405  0.07476812    -0.20900
C1500       C  0.64277711  0.79255348  0.10669128    -0.09000
C1501       C  0.66020600  0.82765548  0.12092202     0.29900
C1502       C  0.67781939  0.85832954  0.10407808    -0.20900
C1503       C  0.67929683  0.85476551  0.07264927    -0.09000
C1504       C  0.66287125  0.81985716  0.05812757     0.29900
F1505       F  0.66335406  0.81626706  0.02762542    -0.19500
H1506       H  0.63070445  0.76606867  0.06195670     0.18200
H1507       H  0.69028739  0.88530855  0.11568095     0.18200
F1508       F  0.66016711  0.83246666  0.15136302    -0.19500
C1509       C  0.81863415  0.85986209  0.39690577    -0.20900
C1510       C  0.81390711  0.85367207  0.42786861    -0.09000
C1511       C  0.82579881  0.81429249  0.44177394     0.29900
C1512       C  0.84397294  0.78359852  0.42552851    -0.20900
C1513       C  0.84970447  0.78974263  0.39432276    -0.09000
C1514       C  0.83571867  0.82824034  0.38023939     0.29900
F1515       F  0.83911788  0.83593117  0.35024060    -0.19500
H1516       H  0.80915476  0.88957457  0.38551761     0.18200
H1517       H  0.85377209  0.75579599  0.43826557     0.18200
F1518       F  0.82117444  0.80648441  0.47154376    -0.19500
C1519       C  0.62948138  0.17947822  0.40287798    -0.20900
C1520       C  0.63976863  0.22519702  0.39815344    -0.09000
C1521       C  0.66398769  0.24058365  0.41670534     0.29900
C1522       C  0.68058379  0.20907292  0.43436077    -0.20900
C1523       C  0.67225875  0.16215177  0.43544071    -0.09000
C1524       C  0.64549184  0.14848970  0.42059593     0.29900
F1525       F  0.63433183  0.10494284  0.42316079    -0.19500
H1526       H  0.60874013  0.16672701  0.39277316     0.18200
H1527       H  0.70023874  0.22129828  0.44673381     0.18200
F1528       F  0.67256342  0.28557002  0.41678090    -0.19500
C1529       C  0.81704391  0.86131457  0.10457767    -0.20900
C1530       C  0.81435812  0.85571316  0.07330870    -0.09000
C1531       C  0.82923766  0.81885321  0.05947750     0.29900
C1532       C  0.84736792  0.78902485  0.07630072    -0.20900
C1533       C  0.84996209  0.79328294  0.10802770    -0.09000
C1534       C  0.83427778  0.83057915  0.12178337     0.29900
F1535       F  0.83549951  0.83726041  0.15205008    -0.19500
H1536       H  0.80584946  0.88986947  0.11574556     0.18200
H1537       H  0.85974495  0.76359996  0.06361022     0.18200
F1538       F  0.82790335  0.81328887  0.02927118    -0.19500
C1539       C  0.67795538  0.85648861  0.39976006    -0.20900
C1540       C  0.68026940  0.85012833  0.43096414    -0.09000
C1541       C  0.66791855  0.80989534  0.44362250     0.29900
C1542       C  0.65035156  0.77973245  0.42595420    -0.20900
C1543       C  0.64498736  0.78859116  0.39500120    -0.09000
C1544       C  0.66180921  0.82520595  0.38182521     0.29900
F1545       F  0.66095010  0.83267506  0.35164089    -0.19500
H1546       H  0.68863637  0.88605750  0.38918955     0.18200
H1547       H  0.64118492  0.74946661  0.43685004     0.18200
F1548       F  0.67192344  0.80042679  0.47324780    -0.19500
C1549       C  0.91093311  0.24250827  0.33507110    -0.20900
C1550       C  0.89250434  0.22583095  0.35883667    -0.09000
C1551       C  0.89831016  0.18013955  0.36887138     0.29900
C1552       C  0.91665806  0.15069779  0.35225968    -0.20900
C1553       C  0.93131628  0.16558098  0.32598463    -0.09000
C1554       C  0.92948235  0.21259249  0.31823457     0.29900
F1555       F  0.94458001  0.22940961  0.29392329    -0.19500
H1556       H  0.90951377  0.27832790  0.32834311     0.18200
H1557       H  0.91929901  0.11561830  0.36023539     0.18200
F1558       F  0.88712779  0.16319904  0.39513240    -0.19500
C1559       C  0.83999409  0.23769134  0.42434924    -0.20900
C1560       C  0.84622601  0.22947277  0.39357698    -0.09000
C1561       C  0.82982699  0.19335704  0.37922287     0.29900
C1562       C  0.81279343  0.16200901  0.39602137    -0.20900
C1563       C  0.80977807  0.16732496  0.42718433    -0.09000
C1564       C  0.82210689  0.20681863  0.44103922     0.29900
F1565       F  0.81819131  0.21438982  0.47098793    -0.19500
H1566       H  0.84920648  0.26745120  0.43585072     0.18200
H1567       H  0.80240725  0.13284469  0.38466936     0.18200
F1568       F  0.83243409  0.18580845  0.34915239    -0.19500
C1569       C  0.57748177  0.32095283  0.11838649    -0.20900
C1570       C  0.59637327  0.28838141  0.10368853    -0.09000
C1571       C  0.59392224  0.28454672  0.07193460     0.29900
C1572       C  0.57619179  0.31614152  0.05577867    -0.20900
C1573       C  0.56061079  0.35150621  0.07079887    -0.09000
C1574       C  0.56062676  0.35287151  0.10224803     0.29900
F1575       F  0.54486566  0.38580410  0.11740149    -0.19500
H1576       H  0.57765790  0.32390563  0.14272672     0.18200
H1577       H  0.57548560  0.31400389  0.03140604     0.18200
F1578       F  0.60795301  0.25061563  0.05624922    -0.19500
C1579       C  0.55462814  0.69713298  0.08472201    -0.20900
C1580       C  0.57022186  0.66261282  0.06917396    -0.09000
C1581       C  0.60188240  0.65983103  0.07220468     0.29900
C1582       C  0.61761158  0.69241188  0.08949115    -0.20900
C1583       C  0.60232266  0.72770102  0.10565499    -0.09000
C1584       C  0.56993973  0.72778638  0.10378689     0.29900
F1585       F  0.55210219  0.75421634  0.12161475    -0.19500
H1586       H  0.53004143  0.69834998  0.08376880     0.18200
H1587       H  0.64213152  0.68960374  0.09076692     0.18200
F1588       F  0.61767755  0.62546793  0.05856256    -0.19500
C1589       C  0.92212724  0.73077594  0.10517761    -0.20900
C1590       C  0.88994568  0.72831429  0.10694733    -0.09000
C1591       C  0.87548227  0.69202876  0.09081871     0.29900
C1592       C  0.89228673  0.66108660  0.07347169    -0.20900
C1593       C  0.92389556  0.66528388  0.07120005    -0.09000
C1594       C  0.93871816  0.70052889  0.08700454     0.29900
F1595       F  0.96948189  0.70419314  0.08623309    -0.19500
H1596       H  0.93520395  0.75523520  0.11810757     0.18200
H1597       H  0.88049914  0.63356586  0.06171799     0.18200
F1598       F  0.84482646  0.68652780  0.09168248    -0.19500
C1599       C  0.57737097  0.65188052  0.40162103    -0.20900
C1600       C  0.56614620  0.66580332  0.42970860    -0.09000
C1601       C  0.56978700  0.71229110  0.43823358     0.29900
C1602       C  0.58606083  0.74288913  0.41958053    -0.20900
C1603       C  0.60103959  0.72719110  0.39322398    -0.09000
C1604       C  0.59395528  0.68173373  0.38345626     0.29900
F1605       F  0.60246739  0.66525469  0.35612233    -0.19500
H1606       H  0.57331059  0.61719726  0.39340357     0.18200
H1607       H  0.58843618  0.77845385  0.42668897     0.18200
F1608       F  0.55877132  0.72781118  0.46495592    -0.19500
C1609       C  0.89336071  0.65782739  0.42987217    -0.20900
C1610       C  0.92413039  0.66613251  0.43617126    -0.09000
C1611       C  0.93799530  0.70557170  0.42423663     0.29900
C1612       C  0.92178054  0.73465203  0.40492322    -0.20900
C1613       C  0.89062010  0.72676842  0.39806696    -0.09000
C1614       C  0.87672770  0.68768735  0.41158746     0.29900
F1615       F  0.84684216  0.67807541  0.40709462    -0.19500
H1616       H  0.88209220  0.62763877  0.43900642     0.18200
H1617       H  0.93449110  0.76276764  0.39532001     0.18200
F1618       F  0.96776083  0.71474716  0.42982645    -0.19500
C1619       C  0.56166762  0.30739301  0.43161034    -0.20900
C1620       C  0.57039387  0.35406444  0.43330518    -0.09000
C1621       C  0.59771107  0.36742379  0.41935403     0.29900
C1622       C  0.61408102  0.33635771  0.40199257    -0.20900
C1623       C  0.60387908  0.29067189  0.39702613    -0.09000
C1624       C  0.57862785  0.27573205  0.41439286     0.29900
F1625       F  0.56984620  0.23083887  0.41429925    -0.19500
H1626       H  0.54151313  0.29544555  0.44328433     0.18200
H1627       H  0.63520801  0.34888579  0.39258286     0.18200
F1628       F  0.60917787  0.41068267  0.42263356    -0.19500
C1629       C  0.87974860  0.33786080  0.10337952    -0.20900
C1630       C  0.89031667  0.29242350  0.10814281    -0.09000
C1631       C  0.91560463  0.27801479  0.09072088     0.29900
C1632       C  0.93187695  0.30976228  0.07297843    -0.20900
C1633       C  0.92266526  0.35608357  0.07115217    -0.09000
C1634       C  0.89571231  0.36919596  0.08583897     0.29900
F1635       F  0.88423777  0.41245919  0.08314718    -0.19500
H1636       H  0.85869557  0.34999047  0.11309403     0.18200
H1637       H  0.95195896  0.29820386  0.06106347     0.18200
F1638       F  0.92506816  0.23351962  0.09123709    -0.19500
C1639       C  0.92282963  0.31074156  0.43647229    -0.20900
C1640       C  0.92573398  0.35676348  0.42688264    -0.09000
C1641       C  0.91262286  0.36912879  0.39914961     0.29900
C1642       C  0.89548864  0.33740791  0.38271346    -0.20900
C1643       C  0.88965015  0.29228783  0.39348050    -0.09000
C1644       C  0.90576956  0.27861394  0.41969271     0.29900
F1645       F  0.90471470  0.23442781  0.42960877    -0.19500
H1646       H  0.93358007  0.29956578  0.45716406     0.18200
H1647       H  0.88703643  0.34880544  0.36109666     0.18200
F1648       F  0.91678146  0.41184752  0.38729057    -0.19500
C1649       C  0.85089654  0.65547454  0.32312526    -0.20900
C1650       C  0.81958052  0.66138657  0.31850950    -0.09000
C1651       C  0.80543265  0.70013443  0.33100764     0.29900
C1652       C  0.82193743  0.73111480  0.34892554    -0.20900
C1653       C  0.85365988  0.72595515  0.35402530    -0.09000
C1654       C  0.86778759  0.68729300  0.34015702     0.29900
F1655       F  0.89800519  0.67945074  0.34370503    -0.19500
H1656       H  0.86237270  0.62581345  0.31360015     0.18200
H1657       H  0.80892362  0.75833082  0.35915177     0.18200
F1658       F  0.77509452  0.70672913  0.32740658    -0.19500
C1659       C  0.68908832  0.31590895  0.33143859    -0.20900
C1660       C  0.67314638  0.35111964  0.31658939    -0.09000
C1661       C  0.64142174  0.35168996  0.31814640     0.29900
C1662       C  0.62614295  0.31966854  0.33598397    -0.20900
C1663       C  0.64194681  0.28712939  0.35396020    -0.09000
C1664       C  0.67382979  0.28391733  0.34977789     0.29900
F1665       F  0.69049917  0.24971332  0.36229258    -0.19500
H1666       H  0.71360446  0.31390708  0.32947000     0.18200
H1667       H  0.60158641  0.32187313  0.33712189     0.18200
F1668       F  0.62513844  0.38337753  0.30248923    -0.19500
C1669       C  0.84847591  0.35173556  0.18579303    -0.20900
C1670       C  0.81684507  0.34841990  0.18588786    -0.09000
C1671       C  0.80273119  0.31131722  0.17098374     0.29900
C1672       C  0.82014700  0.28054184  0.15378324    -0.20900
C1673       C  0.85188958  0.28675083  0.15084810    -0.09000
C1674       C  0.86586495  0.32083672  0.16926405     0.29900
F1675       F  0.89645873  0.32698977  0.16927880    -0.19500
H1676       H  0.85980874  0.37918850  0.19805069     0.18200
H1677       H  0.80848789  0.25259981  0.14252758     0.18200
F1678       F  0.77204582  0.30625807  0.17171014    -0.19500
C1679       C  0.64363765  0.66072083  0.17981506    -0.20900
C1680       C  0.67543909  0.66309978  0.18047451    -0.09000
C1681       C  0.69027360  0.69715339  0.16369508     0.29900
C1682       C  0.67354330  0.72828336  0.14635599    -0.20900
C1683       C  0.64126658  0.72767747  0.14621141    -0.09000
C1684       C  0.62672538  0.69247055  0.16315724     0.29900
F1685       F  0.59593473  0.68907356  0.16383522    -0.19500
H1686       H  0.63181263  0.63405535  0.19230956     0.18200
H1687       H  0.68654394  0.75172816  0.13259164     0.18200
F1688       F  0.72107940  0.69862858  0.16260921    -0.19500
C1689       C  0.80402135  0.69581938  0.16787600    -0.20900
C1690       C  0.81989729  0.66151441  0.18321923    -0.09000
C1691       C  0.85166587  0.66045390  0.18134426     0.29900
C1692       C  0.86717272  0.69363699  0.16440624    -0.20900
C1693       C  0.85156463  0.72846037  0.14817674    -0.09000
C1694       C  0.81917812  0.72790460  0.14984604     0.29900
F1695       F  0.80123701  0.75554537  0.13296487    -0.19500
H1696       H  0.77942494  0.69616159  0.16846962     0.18200
H1697       H  0.89174993  0.69173265  0.16344981     0.18200
F1698       F  0.86774381  0.62738335  0.19594480    -0.19500
C1699       C  0.82950430  0.31999463  0.36747528    -0.20900
C1700       C  0.84798470  0.28621927  0.35357645    -0.09000
C1701       C  0.84491963  0.28067143  0.32185384     0.29900
C1702       C  0.82759874  0.31219975  0.30497387    -0.20900
C1703       C  0.81239677  0.34873455  0.31923364    -0.09000
C1704       C  0.81256658  0.35118167  0.35069186     0.29900
F1705       F  0.79639774  0.38417764  0.36530957    -0.19500
H1706       H  0.82957463  0.32391045  0.39175254     0.18200
H1707       H  0.82654514  0.30859581  0.28068747     0.18200
F1708       F  0.85720696  0.24439131  0.30695162    -0.19500
C1709       C  0.67770064  0.66306760  0.35124912    -0.20900
C1710       C  0.67823848  0.66621989  0.31984472    -0.09000
C1711       C  0.66385510  0.70388810  0.30592252     0.29900
C1712       C  0.64750960  0.73607302  0.32328317    -0.20900
C1713       C  0.64442351  0.73059289  0.35485204    -0.09000
C1714       C  0.66188388  0.69521435  0.36857407     0.29900
F1715       F  0.66164574  0.68915869  0.39887791    -0.19500
H1716       H  0.68933139  0.63502933  0.36250011     0.18200
H1717       H  0.63696257  0.76456995  0.31167702     0.18200
F1718       F  0.66433721  0.70833789  0.27546675    -0.19500
C1719       C  0.66161669  0.37038562  0.15015479    -0.20900
C1720       C  0.67595112  0.35527485  0.17652313    -0.09000
C1721       C  0.67399647  0.30830424  0.18416164     0.29900
C1722       C  0.65627334  0.27819071  0.16667013    -0.20900
C1723       C  0.63901903  0.29438767  0.14197707    -0.09000
C1724       C  0.64418161  0.34076208  0.13276475     0.29900
F1725       F  0.63387676  0.35806833  0.10625713    -0.19500
H1726       H  0.66411331  0.40565290  0.14244845     0.18200
H1727       H  0.65515976  0.24218852  0.17305855     0.18200
F1728       F  0.68861754  0.29152624  0.20871866    -0.19500
O1729       O  0.68409148  0.42970203  0.80975770    -0.74900
O1730       O  0.70968438  0.37380699  0.78406228    -0.53800
C1731       C  0.68937769  0.38724460  0.80303174     0.78800
O1732       O  0.68667787  0.58418892  0.69372829    -0.59500
O1733       O  0.71398886  0.63875218  0.71937176    -0.52600
C1734       C  0.69365715  0.62613301  0.70010509     0.70800
O1735       O  0.68691875  0.42999750  0.69292980    -0.74100
O1736       O  0.71306457  0.37369844  0.71741609    -0.54700
C1737       C  0.69364245  0.38741638  0.69769377     0.76800
O1738       O  0.69068262  0.58550963  0.81491697    -0.59200
O1739       O  0.71514447  0.64024834  0.78705687    -0.52400
C1740       C  0.69700259  0.62780365  0.80834025     0.73400
Zr1741     Zr  0.70125743  0.50725241  0.79734251     2.54700
O1742       O  0.64612380  0.51326486  0.79491311    -0.79800
O1743       O  0.70075300  0.50205080  0.85211876    -0.93200
Zr1744     Zr  0.70165978  0.50723490  0.70873361     2.64700
O1745       O  0.64650766  0.50925351  0.71328640    -0.98200
O1746       O  0.70133923  0.50710552  0.65383200    -0.80200
O1747       O  0.69993744  0.46174222  0.75284957    -0.83600
O1748       O  0.70126843  0.55257488  0.75312066    -2.18300
O1749       O  0.80866776  0.58192298  0.81210764    -0.67000
O1750       O  0.78107617  0.63712454  0.78754287    -0.51500
C1751       C  0.80175567  0.62421719  0.80628419     0.71800
O1752       O  0.80766198  0.42841186  0.69559835    -0.59900
O1753       O  0.77823071  0.37387700  0.71868716    -0.51900
C1754       C  0.79962762  0.38641964  0.70069854     0.73600
O1755       O  0.80856167  0.58267203  0.69414340    -0.71300
O1756       O  0.78076790  0.63762360  0.71870674    -0.50000
C1757       C  0.80142288  0.62479980  0.69990112     0.75000
O1758       O  0.80266028  0.42631168  0.81388461    -0.66600
O1759       O  0.77784701  0.37246605  0.78529595    -0.53800
C1760       C  0.79623877  0.38447709  0.80639599     0.73400
Zr1761     Zr  0.79071221  0.50480386  0.79819912     2.77500
O1762       O  0.84592638  0.49884770  0.80006315    -0.97400
O1763       O  0.78435316  0.50741640  0.85269326    -0.78200
Zr1764     Zr  0.79180068  0.50590861  0.70923784     2.70100
O1765       O  0.84706977  0.50761283  0.71191534    -0.79400
O1766       O  0.79040681  0.50457059  0.65436785    -0.98500
Zr1767     Zr  0.74509635  0.41650467  0.75239901     2.21500
Zr1768     Zr  0.74737177  0.59608157  0.75317524     2.11100
O1769       O  0.79247098  0.55043983  0.75385577    -2.47200
O1770       O  0.79133748  0.45991974  0.75342052    -0.79200
O1771       O  0.74659251  0.55135656  0.79828358    -0.71400
O1772       O  0.74632894  0.46200429  0.70777057    -2.32400
O1773       O  0.74531911  0.46065010  0.79795134    -2.28600
O1774       O  0.74713831  0.55152378  0.70806792    -0.73200
H1775       H  0.68376474  0.57260364  0.75326859     0.78800
H1776       H  0.74638870  0.44269114  0.69004453     0.79900
H1777       H  0.81045840  0.56961631  0.75397526     0.82100
H1778       H  0.74462456  0.44083416  0.81540926     0.79700
H1779       H  0.71228244  0.47865738  0.64796763     0.42800
H1780       H  0.81168523  0.49846719  0.64829043     0.41700
H1781       H  0.85196039  0.49207094  0.73116126     0.41400
H1782       H  0.85046175  0.48839695  0.82081981     0.39400
H1783       H  0.80235905  0.49121068  0.86081848     0.42500
H1784       H  0.68052236  0.51386415  0.85809999     0.37300
H1785       H  0.63891682  0.50055145  0.81435166     0.43400
H1786       H  0.63900802  0.50691383  0.69230232     0.39800
H1787       H  0.85081846  0.47193349  0.78719587     0.44700
H1788       H  0.71522756  0.52612321  0.85890629     0.43400
H1789       H  0.64098052  0.47938234  0.72262655     0.43600
H1790       H  0.77929997  0.47592200  0.64911475     0.43900
O1791       O  0.93564991  0.43319158  0.94326322    -0.74900
O1792       O  0.96179573  0.37730612  0.96820623    -0.53800
C1793       C  0.94215346  0.39066980  0.94856986     0.78800
O1794       O  0.55528372  0.58858907  0.94286259    -0.59500
O1795       O  0.53020624  0.64342410  0.97018895    -0.52600
C1796       C  0.54936828  0.63085325  0.94988108     0.70800
O1797       O  0.55519573  0.43186471  0.94305660    -0.74100
O1798       O  0.52612897  0.37726324  0.96658431    -0.54700
C1799       C  0.54756135  0.38977463  0.94866967     0.76800
O1800       O  0.93312812  0.58791229  0.94581677    -0.59200
O1801       O  0.96197647  0.64262893  0.96965756    -0.52400
C1802       C  0.94064334  0.62988315  0.95151227     0.73400
Zr1803     Zr  0.95048722  0.51093760  0.95826000     2.54700
O1804       O  0.95634906  0.51271290  0.90371890    -0.79800
O1805       O  0.89512759  0.50881959  0.95596028    -0.93200
Zr1806     Zr  0.53959618  0.51008412  0.95634681     2.64700
O1807       O  0.53483613  0.51122323  0.90166864    -0.98200
O1808       O  0.59484371  0.50880149  0.95305827    -0.80200
O1809       O  0.99513083  0.46568890  0.95703650    -0.83600
O1810       O  0.99529169  0.55637113  0.95772487    -2.18300
O1811       O  0.93355816  0.58647262  0.55836543    -0.67000
O1812       O  0.96432768  0.64124979  0.53725849    -0.51500
C1813       C  0.94205056  0.62844555  0.55426088     0.71800
O1814       O  0.55186736  0.42802009  0.56282953    -0.59900
O1815       O  0.52807291  0.37458994  0.53309726    -0.51900
C1816       C  0.54575446  0.38620008  0.55490440     0.73600
O1817       O  0.56207069  0.58269306  0.55845707    -0.71300
O1818       O  0.53349105  0.63873056  0.53592719    -0.50000
C1819       C  0.55499311  0.62509745  0.55353672     0.75000
O1820       O  0.93484218  0.43134044  0.55839471    -0.66600
O1821       O  0.96028043  0.37560719  0.53250066    -0.53800
C1822       C  0.94022976  0.38892460  0.55168441     0.73400
Zr1823     Zr  0.95075538  0.50939919  0.54569085     2.77500
O1824       O  0.95210919  0.51176835  0.60055874    -0.97400
O1825       O  0.89543267  0.50859064  0.54679267    -0.78200
Zr1826     Zr  0.54174708  0.50669858  0.54580916     2.70100
O1827       O  0.53975988  0.51253387  0.60050169    -0.79400
O1828       O  0.59655114  0.49489427  0.54486333    -0.98500
Zr1829     Zr  0.99433944  0.41941723  0.50049116     2.21500
Zr1830     Zr  0.99762856  0.59923080  0.50272137     2.11100
O1831       O  0.99622881  0.55355284  0.54755692    -2.47200
O1832       O  0.99480338  0.46270604  0.54641155    -0.79200
O1833       O  0.95143776  0.55568384  0.50178505    -0.71400
O1834       O  0.54208481  0.46310006  0.50081507    -2.32400
O1835       O  0.94932248  0.46517875  0.50082595    -2.28600
O1836       O  0.54356188  0.55357102  0.50196770    -0.73200
H1837       H  0.99495044  0.57597355  0.94011809     0.78800
H1838       H  0.55964782  0.44316788  0.50103636     0.79900
H1839       H  0.99632809  0.57281100  0.56534131     0.82100
H1840       H  0.93123256  0.44618803  0.50028052     0.79700
H1841       H  0.60169061  0.50219489  0.97385764     0.42800
H1842       H  0.60387510  0.51449516  0.52809699     0.41700
H1843       H  0.51838368  0.50526477  0.60566568     0.41400
H1844       H  0.93835523  0.48662402  0.60712380     0.39400
H1845       H  0.88933995  0.50626499  0.52537601     0.42500
H1846       H  0.89013973  0.51652949  0.93479547     0.37300
H1847       H  0.93539862  0.50971791  0.89579326     0.43400
H1848       H  0.52063711  0.53681497  0.89732927     0.39800
H1849       H  0.97271765  0.50085928  0.60590750     0.44700
H1850       H  0.88833535  0.53594346  0.96773833     0.43400
H1851       H  0.55480225  0.52257461  0.89446032     0.43600
H1852       H  0.60415240  0.51030772  0.56331465     0.43900
C1853       C  0.86990266  0.25813724  0.87737462    -0.02100
O1854       O  0.79862331  0.09190743  0.93799552    -0.74900
O1855       O  0.77731352  0.14536387  0.96926741    -0.53800
C1856       C  0.79352035  0.13365733  0.94648314     0.78800
O1857       O  0.68660417  0.93514413  0.94131327    -0.59500
O1858       O  0.71331574  0.87975469  0.96642078    -0.52600
C1859       C  0.69368242  0.89272975  0.94664068     0.70800
O1860       O  0.68384884  0.09174488  0.94764886    -0.74100
O1861       O  0.71328212  0.14527716  0.97182637    -0.54700
C1862       C  0.69168374  0.13358501  0.95391197     0.76800
O1863       O  0.80357625  0.93671072  0.93731338    -0.59200
O1864       O  0.78069378  0.88131700  0.96613391    -0.52400
C1865       C  0.79853994  0.89444354  0.94473884     0.73400
Zr1866     Zr  0.78937409  0.01336723  0.95510755     2.54700
O1867       O  0.78820744  0.01370827  0.90025639    -0.79800
O1868       O  0.84469903  0.01792384  0.95533062    -0.93200
Zr1869     Zr  0.69962463  0.01278303  0.95909962     2.64700
O1870       O  0.69713219  0.02057551  0.90450510    -0.98200
O1871       O  0.64446420  0.00869818  0.96273181    -0.80200
O1872       O  0.74446821  0.05809095  0.95755423    -0.83600
O1873       O  0.74460597  0.96813098  0.95580827    -2.18300
O1874       O  0.80933699  0.93342815  0.56125443    -0.67000
O1875       O  0.78321461  0.87787208  0.53531482    -0.51500
C1876       C  0.80259150  0.89125868  0.55528756     0.71800
O1877       O  0.69276860  0.08664912  0.56436019    -0.59900
O1878       O  0.71609858  0.14259282  0.53685364    -0.51900
C1879       C  0.69804519  0.12918568  0.55793941     0.73600
O1880       O  0.69128756  0.93210662  0.56578918    -0.71300
O1881       O  0.71426056  0.87714589  0.53669613    -0.50000
C1882       C  0.69623542  0.89000523  0.55807804     0.75000
O1883       O  0.81091432  0.08664008  0.55642629    -0.66600
O1884       O  0.78284466  0.14187096  0.53304743    -0.53800
C1885       C  0.80420204  0.12886153  0.55096101     0.73400
Zr1886     Zr  0.79563733  0.00940763  0.54283031     2.77500
O1887       O  0.80058574  0.01617811  0.59733955    -0.97400
O1888       O  0.85051135  0.00610009  0.53570463    -0.78200
Zr1889     Zr  0.70640171  0.00880372  0.54932102     2.70100
O1890       O  0.71543000  0.00956040  0.60344975    -0.79400
O1891       O  0.65135628  0.01187277  0.55455533    -0.98500
Zr1892     Zr  0.74721297  0.09869227  0.50179875     2.21500
Zr1893     Zr  0.74818458  0.91872793  0.50232171     2.11100
O1894       O  0.75108391  0.96396981  0.54712670    -2.47200
O1895       O  0.75092049  0.05448831  0.54687566    -0.79200
O1896       O  0.79356802  0.96402538  0.49846512    -0.71400
O1897       O  0.70216266  0.05282578  0.50469342    -2.32400
O1898       O  0.79307243  0.05481284  0.49849623    -2.28600
O1899       O  0.70250829  0.96254170  0.50525068    -0.73200
H1900       H  0.74412964  0.94926426  0.93787406     0.78800
H1901       H  0.68425920  0.07204026  0.50576189     0.79900
H1902       H  0.75194491  0.94482753  0.56489276     0.82100
H1903       H  0.81064112  0.07483292  0.49722245     0.79700
H1904       H  0.64035922  0.97960652  0.97368845     0.42800
H1905       H  0.64374975  0.98554965  0.54246626     0.41700
H1906       H  0.69540393  0.01689424  0.61241738     0.41400
H1907       H  0.78424555  0.99629126  0.60555833     0.39400
H1908       H  0.85586301  0.03565992  0.52585811     0.42500
H1909       H  0.85087830  0.00105389  0.97371151     0.37300
H1910       H  0.76643113  0.01728476  0.89514878     0.43400
H1911       H  0.70859831  0.99384655  0.89656601     0.39800
H1912       H  0.81968327  0.99987561  0.60234898     0.44700
H1913       H  0.84943980  0.05062708  0.95981638     0.43400
H1914       H  0.67565407  0.01381567  0.89942731     0.43600
H1915       H  0.64742350  0.00291381  0.57573075     0.43900
C1916       C  0.62172915  0.75868587  0.87654418    -0.02100
O1917       O  0.93209793  0.09111561  0.69680377    -0.74900
O1918       O  0.96152308  0.14516273  0.72042850    -0.53800
C1919       C  0.93994389  0.13309628  0.70257826     0.78800
O1920       O  0.94132925  0.93343911  0.81610852    -0.59500
O1921       O  0.96262873  0.87935996  0.78525645    -0.52600
C1922       C  0.94589487  0.89150806  0.80775173     0.70800
O1923       O  0.93820611  0.08813333  0.81259782    -0.74100
O1924       O  0.96352583  0.14409332  0.78671614    -0.54700
C1925       C  0.94464466  0.13063538  0.80701702     0.76800
O1926       O  0.93593994  0.93520621  0.69057894    -0.59200
O1927       O  0.96110562  0.88024681  0.71781416    -0.52400
C1928       C  0.94219569  0.89307907  0.69731090     0.73400
Zr1929     Zr  0.94812937  0.01251355  0.70892596     2.54700
O1930       O  0.89322716  0.01089087  0.71616904    -0.79800
O1931       O  0.94308166  0.01565364  0.65428741    -0.93200
Zr1932     Zr  0.95243548  0.01054490  0.79745644     2.64700
O1933       O  0.89726853  0.00357162  0.79551393    -0.98200
O1934       O  0.95122661  0.01539418  0.85219297    -0.80200
O1935       O  0.94953438  0.05705884  0.75371190    -0.83600
O1936       O  0.94965937  0.96596678  0.75283800    -2.18300
O1937       O  0.55481665  0.93368001  0.68862289    -0.67000
O1938       O  0.53129461  0.87884323  0.71742792    -0.51500
C1939       C  0.54932363  0.89160030  0.69608887     0.71800
O1940       O  0.55929219  0.08540854  0.81056915    -0.59900
O1941       O  0.53323687  0.14187950  0.78609829    -0.51900
C1942       C  0.55326410  0.12806419  0.80506920     0.73600
O1943       O  0.55547342  0.92902632  0.81223046    -0.71300
O1944       O  0.53006637  0.87532514  0.78414166    -0.50000
C1945       C  0.54865270  0.88707865  0.80521131     0.75000
O1946       O  0.55551292  0.08864655  0.69036372    -0.66600
O1947       O  0.53287743  0.14262357  0.72040585    -0.53800
C1948       C  0.55019191  0.13060100  0.69842079     0.73400
Zr1949     Zr  0.54243820  0.01066667  0.70675594     2.77500
O1950       O  0.59772525  0.00880419  0.70934448    -0.97400
O1951       O  0.54149198  0.01075445  0.65190782    -0.78200
Zr1952     Zr  0.54439162  0.00771265  0.79569060     2.70100
O1953       O  0.59946561  0.00409970  0.79066542    -0.79400
O1954       O  0.54739629  0.00984951  0.85050336    -0.98500
Zr1955     Zr  0.49929931  0.09954187  0.75344509     2.21500
Zr1956     Zr  0.99560132  0.92210176  0.75094394     2.11100
O1957       O  0.54368871  0.96401793  0.75066083    -2.47200
O1958       O  0.54470286  0.05459600  0.75185827    -0.79200
O1959       O  0.99311389  0.96756611  0.70614164    -0.71400
O1960       O  0.49993173  0.05341490  0.79802087    -2.32400
O1961       O  0.49796724  0.05647724  0.70763501    -2.28600
O1962       O  0.99777104  0.96657192  0.79613740    -0.73200
H1963       H  0.93204764  0.94601021  0.75347335     0.78800
H1964       H  0.50049618  0.07232996  0.81594615     0.79900
H1965       H  0.56118879  0.94393742  0.75014154     0.82100
H1966       H  0.49760436  0.07657732  0.69028295     0.79700
H1967       H  0.97261189  0.01073828  0.85840846     0.42800
H1968       H  0.53301679  0.98571340  0.85736169     0.41700
H1969       H  0.60723357  0.00820875  0.81144038     0.41400
H1970       H  0.60459925  0.02475522  0.69082813     0.39400
H1971       H  0.56317092  0.01136471  0.64590100     0.42500
H1972       H  0.95679317  0.04096512  0.64791306     0.34900
H1973       H  0.88761478  0.97781043  0.71573216     0.43400
H1974       H  0.89030495  0.01406308  0.81560232     0.39800
H1975       H  0.60297691  0.03029105  0.72591332     0.44700
H1976       H  0.92233972  0.02771940  0.65076019     0.43400
H1977       H  0.89071138  0.02820360  0.78153227     0.43600
H1978       H  0.56776569  0.99742608  0.85535721     0.43900
C1979       C  0.87095991  0.75842745  0.62767878    -0.02100
C1980       C  0.62036484  0.25913775  0.62460997    -0.02100
C1981       C  0.87106433  0.25986020  0.62698509    -0.02100
C1982       C  0.62305398  0.75784687  0.62841425    -0.02100
C1983       C  0.62122161  0.25921180  0.88012964    -0.02100
C1984       C  0.87176226  0.75995828  0.87695497    -0.02100
C1985       C  0.59678492  0.14804713  0.83784783    -0.20900
C1986       C  0.57105290  0.16279471  0.82206437    -0.09000
C1987       C  0.56346010  0.20994135  0.82275779     0.29900
C1988       C  0.58040965  0.24059143  0.84052898    -0.20900
C1989       C  0.60431242  0.22482290  0.85916156    -0.09000
C1990       C  0.61371392  0.17836216  0.85525514     0.29900
F1991       F  0.64005248  0.16170232  0.86676433    -0.19500
H1992       H  0.60444248  0.11262139  0.83637640     0.18200
H1993       H  0.57388874  0.27657271  0.84086200     0.18200
F1994       F  0.53938489  0.22642424  0.80697944    -0.19500
C1995       C  0.59505598  0.23718458  0.67620616    -0.20900
C1996       C  0.59858807  0.23014983  0.64485551    -0.09000
C1997       C  0.58100805  0.19455772  0.63137312     0.29900
C1998       C  0.56531073  0.16277788  0.64902221    -0.20900
C1999       C  0.56466802  0.16723568  0.68037993    -0.09000
C2000       C  0.57828244  0.20601550  0.69379226     0.29900
F2001       F  0.57649756  0.21269905  0.72401943    -0.19500
H2002       H  0.60528064  0.26641613  0.68742996     0.18200
H2003       H  0.55382934  0.13416454  0.63810866     0.18200
F2004       F  0.58098212  0.18816913  0.60107144    -0.19500
C2005       C  0.89740393  0.78744802  0.82683100    -0.20900
C2006       C  0.89348967  0.79179535  0.85837964    -0.09000
C2007       C  0.90903548  0.82868620  0.87287282     0.29900
C2008       C  0.92639052  0.86022536  0.85638255    -0.20900
C2009       C  0.92995863  0.85529971  0.82518111    -0.09000
C2010       C  0.91603696  0.81781158  0.81072411     0.29900
F2011       F  0.91918668  0.81169404  0.78063380    -0.19500
H2012       H  0.88584346  0.76129824  0.81389114     0.18200
H2013       H  0.93709931  0.88876248  0.86810282     0.18200
F2014       F  0.90711946  0.83467803  0.90317081    -0.19500
C2015       C  0.58283966  0.82288790  0.69506769    -0.20900
C2016       C  0.56594036  0.85570418  0.67933669    -0.09000
C2017       C  0.56763469  0.85679793  0.64782281     0.29900
C2018       C  0.58556867  0.82483949  0.63234170    -0.20900
C2019       C  0.60271005  0.79082356  0.64769735    -0.09000
C2020       C  0.60173367  0.79187244  0.67985159     0.29900
F2021       F  0.62006957  0.76578854  0.69738465    -0.19500
H2022       H  0.58275560  0.82297659  0.71950158     0.18200
H2023       H  0.58602848  0.82642501  0.60795657     0.18200
F2024       F  0.55175691  0.88868914  0.63194910    -0.19500
C2025       C  0.92736090  0.85640287  0.64881568    -0.20900
C2026       C  0.92593444  0.85707677  0.68027715    -0.09000
C2027       C  0.90688835  0.82574825  0.69508545     0.29900
C2028       C  0.88961522  0.79390906  0.67870588    -0.20900
C2029       C  0.89134977  0.79155712  0.64685066    -0.09000
C2030       C  0.91035067  0.82442548  0.63226484     0.29900
F2031       F  0.91242951  0.82574208  0.60174903    -0.19500
H2032       H  0.94154883  0.88104634  0.63698188     0.18200
H2033       H  0.87399745  0.77284432  0.69144068     0.18200
F2034       F  0.90339607  0.82798338  0.72537131    -0.19500
C2035       C  0.89135702  0.16552854  0.68443724    -0.20900
C2036       C  0.92286247  0.16968746  0.68711284    -0.09000
C2037       C  0.93767096  0.20725719  0.67348316     0.29900
C2038       C  0.92134951  0.23786105  0.65519132    -0.20900
C2039       C  0.88999247  0.23114111  0.64983308    -0.09000
C2040       C  0.87497363  0.19638722  0.66683789     0.29900
F2041       F  0.84447324  0.18993369  0.66465178    -0.19500
H2042       H  0.87940204  0.13760050  0.69557081     0.18200
H2043       H  0.93357165  0.26623135  0.64506336     0.18200
F2044       F  0.96816109  0.21294031  0.67650577    -0.19500
C2045       C  0.58338066  0.82332218  0.87076207    -0.20900
C2046       C  0.59922206  0.78681561  0.85656504    -0.09000
C2047       C  0.59299074  0.77909148  0.82552879     0.29900
C2048       C  0.57535063  0.81071619  0.80909760    -0.20900
C2049       C  0.56346040  0.85027796  0.82300592    -0.09000
C2050       C  0.56686637  0.85548444  0.85421413     0.29900
F2051       F  0.55461862  0.89224750  0.86876436    -0.19500
H2052       H  0.58576837  0.82901637  0.89477760     0.18200
H2053       H  0.57187771  0.80508760  0.78519971     0.18200
F2054       F  0.60291849  0.74098423  0.81086028    -0.19500
C2055       C  0.81285164  0.20998265  0.56939203    -0.20900
C2056       C  0.82247517  0.16396840  0.56715893    -0.09000
C2057       C  0.84961092  0.15107635  0.58161253     0.29900
C2058       C  0.86501257  0.18216289  0.59981382    -0.20900
C2059       C  0.85370029  0.22696545  0.60532213    -0.09000
C2060       C  0.82867371  0.24151806  0.58760148     0.29900
F2061       F  0.81890311  0.28582454  0.58827779    -0.19500
H2062       H  0.79273634  0.22143826  0.55750983     0.18200
H2063       H  0.88604438  0.17030941  0.60971633     0.18200
F2064       F  0.86159709  0.10820004  0.57835517    -0.19500
C2065       C  0.64765367  0.18111324  0.61794007    -0.20900
C2066       C  0.64261048  0.22651856  0.60750060    -0.09000
C2067       C  0.66137649  0.24195414  0.58353215     0.29900
C2068       C  0.67985779  0.21075493  0.56756550    -0.20900
C2069       C  0.68140444  0.16409591  0.57614972    -0.09000
C2070       C  0.66602029  0.15037493  0.60243608     0.29900
F2071       F  0.66863280  0.10697638  0.61362608    -0.19500
H2072       H  0.63754382  0.16848424  0.63854104     0.18200
H2073       H  0.69248211  0.22298859  0.54818857     0.18200
F2074       F  0.66105233  0.28674248  0.57474676    -0.19500
C2075       C  0.64323426  0.79114865  0.57715071    -0.20900
C2076       C  0.64362243  0.79076295  0.60913107    -0.09000
C2077       C  0.66183954  0.82477254  0.62354923     0.29900
C2078       C  0.67932829  0.85597410  0.60682879    -0.20900
C2079       C  0.67953126  0.85442433  0.57528424    -0.09000
C2080       C  0.66135676  0.82174034  0.56059320     0.29900
F2081       F  0.65962444  0.82127115  0.53010720    -0.19500
H2082       H  0.62835631  0.76903737  0.56429812     0.18200
H2083       H  0.69277548  0.88163640  0.61861744     0.18200
F2084       F  0.66286397  0.82773140  0.65407255    -0.19500
C2085       C  0.81848151  0.86251675  0.89631112    -0.20900
C2086       C  0.81498929  0.85863943  0.92757021    -0.09000
C2087       C  0.82885381  0.82181013  0.94246732     0.29900
C2088       C  0.84705045  0.79064167  0.92676299    -0.20900
C2089       C  0.85044641  0.79312282  0.89505195    -0.09000
C2090       C  0.83540197  0.82998052  0.88015165     0.29900
F2091       F  0.83754126  0.83512384  0.84981981    -0.19500
H2092       H  0.80793329  0.89078844  0.88430238     0.18200
H2093       H  0.85876793  0.76555467  0.94028927     0.18200
F2094       F  0.82612174  0.81720739  0.97265557    -0.19500
C2095       C  0.62603494  0.19943965  0.92143554    -0.20900
C2096       C  0.64089320  0.23305764  0.90356615    -0.09000
C2097       C  0.67240018  0.24002449  0.90866926     0.29900
C2098       C  0.68890262  0.20830072  0.92596609    -0.20900
C2099       C  0.67421001  0.17061141  0.93945330    -0.09000
C2100       C  0.64248282  0.16784084  0.93842173     0.29900
F2101       F  0.62742613  0.13382224  0.95328283    -0.19500
H2102       H  0.60161268  0.19509428  0.92008027     0.18200
H2103       H  0.71329906  0.21243164  0.92809733     0.18200
F2104       F  0.68737662  0.27739230  0.89782461    -0.19500
C2105       C  0.81764310  0.85822013  0.60457156    -0.20900
C2106       C  0.81832646  0.85605682  0.57308843    -0.09000
C2107       C  0.83578303  0.82224489  0.55891563     0.29900
C2108       C  0.85251150  0.79090294  0.57598326    -0.20900
C2109       C  0.85142406  0.79129536  0.60791627    -0.09000
C2110       C  0.83373962  0.82629645  0.62183759     0.29900
F2111       F  0.83175556  0.82932953  0.65231016    -0.19500
H2112       H  0.80449220  0.88470045  0.61583024     0.18200
H2113       H  0.86695644  0.76766663  0.56358653     0.18200
F2114       F  0.83813438  0.82129600  0.52846768    -0.19500
C2115       C  0.66720836  0.86853324  0.89954369    -0.20900
C2116       C  0.67816251  0.85689700  0.92817809    -0.09000
C2117       C  0.67426074  0.81126434  0.93828263     0.29900
C2118       C  0.65756693  0.77943876  0.92102951    -0.20900
C2119       C  0.64297514  0.79273224  0.89402674    -0.09000
C2120       C  0.65092225  0.83677151  0.88224046     0.29900
F2121       F  0.64350068  0.84956590  0.85375908    -0.19500
H2122       H  0.67157760  0.90244279  0.89021724     0.18200
H2123       H  0.65502894  0.74472829  0.92957190     0.18200
F2124       F  0.68561877  0.79768781  0.96527168    -0.19500
C2125       C  0.91018568  0.24270496  0.83638160    -0.20900
C2126       C  0.89264667  0.22606246  0.86078469    -0.09000
C2127       C  0.89860083  0.18036206  0.87057787     0.29900
C2128       C  0.91584676  0.15064482  0.85307496    -0.20900
C2129       C  0.92921397  0.16542010  0.82611088    -0.09000
C2130       C  0.92753544  0.21251452  0.81858115     0.29900
F2131       F  0.94154682  0.22911281  0.79357361    -0.19500
H2132       H  0.90869899  0.27858452  0.82979834     0.18200
H2133       H  0.91862326  0.11548961  0.86085710     0.18200
F2134       F  0.88825556  0.16360717  0.89722363    -0.19500
C2135       C  0.84006594  0.23862719  0.92646795    -0.20900
C2136       C  0.84681670  0.22952254  0.89592928    -0.09000
C2137       C  0.83023440  0.19381521  0.88138211     0.29900
C2138       C  0.81181970  0.16414339  0.89784627    -0.20900
C2139       C  0.80825745  0.17021178  0.92887595    -0.09000
C2140       C  0.82131659  0.20888641  0.94291840     0.29900
F2141       F  0.81756964  0.21633298  0.97289667    -0.19500
H2142       H  0.84954606  0.26816029  0.93799942     0.18200
H2143       H  0.80112835  0.13527211  0.88644303     0.18200
F2144       F  0.83374751  0.18511752  0.85152952    -0.19500
C2145       C  0.57947457  0.32013087  0.61967664    -0.20900
C2146       C  0.59768328  0.28686061  0.60482334    -0.09000
C2147       C  0.59326370  0.28125900  0.57335487     0.29900
C2148       C  0.57512355  0.31251872  0.55730699    -0.20900
C2149       C  0.56067402  0.34918503  0.57213545    -0.09000
C2150       C  0.56201079  0.35164998  0.60359716     0.29900
F2151       F  0.54689048  0.38520094  0.61879344    -0.19500
H2152       H  0.58064272  0.32390974  0.64394156     0.18200
H2153       H  0.57321203  0.30899124  0.53306842     0.18200
F2154       F  0.60546360  0.24548455  0.55789327    -0.19500
C2155       C  0.55614244  0.69214214  0.58823890    -0.20900
C2156       C  0.57206194  0.66045038  0.57056795    -0.09000
C2157       C  0.60389469  0.66004997  0.57188248     0.29900
C2158       C  0.61940264  0.69198640  0.58993912    -0.20900
C2159       C  0.60377151  0.72496134  0.60777480    -0.09000
C2160       C  0.57138957  0.72279906  0.60737269     0.29900
F2161       F  0.55376347  0.74695871  0.62676107    -0.19500
H2162       H  0.53153074  0.69125387  0.58861495     0.18200
H2163       H  0.64402030  0.69091824  0.59019529     0.18200
F2164       F  0.62003929  0.62886004  0.55562853    -0.19500
C2165       C  0.92280159  0.72542705  0.60796369    -0.20900
C2166       C  0.89054230  0.72505618  0.60793666    -0.09000
C2167       C  0.87605275  0.69107458  0.58986605     0.29900
C2168       C  0.89296152  0.66090040  0.57195048    -0.20900
C2169       C  0.92474245  0.66365364  0.57102739    -0.09000
C2170       C  0.93955445  0.69635062  0.58905896     0.29900
F2171       F  0.97036759  0.69850431  0.58970298    -0.19500
H2172       H  0.93572299  0.74745832  0.62279025     0.18200
H2173       H  0.88111881  0.63511912  0.55867284     0.18200
F2174       F  0.84529419  0.68728937  0.58922255    -0.19500
C2175       C  0.56783880  0.66050316  0.90095773    -0.20900
C2176       C  0.56502288  0.66692789  0.93205385    -0.09000
C2177       C  0.57724737  0.70713015  0.94509218     0.29900
C2178       C  0.59390676  0.73850348  0.92738220    -0.20900
C2179       C  0.59962913  0.72959498  0.89650356    -0.09000
C2180       C  0.58405558  0.69170333  0.88330238     0.29900
F2181       F  0.58640342  0.68251735  0.85342845    -0.19500
H2182       H  0.55765552  0.63064101  0.89020923     0.18200
H2183       H  0.60244858  0.76931308  0.93817820     0.18200
F2184       F  0.57430307  0.71507939  0.97510462    -0.19500
C2185       C  0.89189715  0.66206775  0.93294603    -0.20900
C2186       C  0.92356560  0.66547956  0.93517136    -0.09000
C2187       C  0.93881175  0.69986879  0.91903677     0.29900
C2188       C  0.92259034  0.73017056  0.90065422    -0.20900
C2189       C  0.89039913  0.72811418  0.89851729    -0.09000
C2190       C  0.87547786  0.69278157  0.91505596     0.29900
F2191       F  0.84478746  0.68785362  0.91387707    -0.19500
H2192       H  0.87981593  0.63513094  0.94494636     0.18200
H2193       H  0.93598384  0.75402866  0.88757716     0.18200
F2194       F  0.96965136  0.70232125  0.91949804    -0.19500
C2195       C  0.55145455  0.31445085  0.92131641    -0.20900
C2196       C  0.56548678  0.35349021  0.93384204    -0.09000
C2197       C  0.59711918  0.35792996  0.93213641     0.29900
C2198       C  0.61416633  0.32544544  0.91655625    -0.20900
C2199       C  0.60019965  0.28885842  0.90061278    -0.09000
C2200       C  0.56849822  0.28205276  0.90502934     0.29900
F2201       F  0.55378468  0.24397786  0.89485011    -0.19500
H2202       H  0.52713395  0.30953092  0.92360687     0.18200
H2203       H  0.63854102  0.33047530  0.91532920     0.18200
F2204       F  0.61164689  0.39393355  0.94548129    -0.19500
C2205       C  0.87766889  0.33600266  0.59811389    -0.20900
C2206       C  0.88934045  0.29201357  0.60552388    -0.09000
C2207       C  0.91555967  0.27732252  0.58960823     0.29900
C2208       C  0.93204373  0.30845951  0.57164346    -0.20900
C2209       C  0.92173941  0.35386825  0.56758332    -0.09000
C2210       C  0.89349447  0.36634199  0.57973733     0.29900
F2211       F  0.88081061  0.40801874  0.57374786    -0.19500
H2212       H  0.85597145  0.34773133  0.60657646     0.18200
H2213       H  0.95310587  0.29724775  0.56135650     0.18200
F2214       F  0.92574843  0.23332872  0.59180152    -0.19500
C2215       C  0.92313686  0.30936307  0.93948505    -0.20900
C2216       C  0.92579747  0.35555612  0.93019437    -0.09000
C2217       C  0.91272915  0.36833772  0.90254713     0.29900
C2218       C  0.89613515  0.33672725  0.88566293    -0.20900
C2219       C  0.89037258  0.29152604  0.89613147    -0.09000
C2220       C  0.90622037  0.27743693  0.92241248     0.29900
F2221       F  0.90476558  0.23322056  0.93223466    -0.19500
H2222       H  0.93379208  0.29802650  0.96019029     0.18200
H2223       H  0.88774730  0.34841832  0.86408464     0.18200
F2224       F  0.91629206  0.41152697  0.89126037    -0.19500
C2225       C  0.85067952  0.65647297  0.82531343    -0.20900
C2226       C  0.81911100  0.66040523  0.82236281    -0.09000
C2227       C  0.80438833  0.69801191  0.83578914     0.29900
C2228       C  0.82087696  0.73002622  0.85293609    -0.20900
C2229       C  0.85292366  0.72688433  0.85610689    -0.09000
C2230       C  0.86743194  0.68930788  0.84143050     0.29900
F2231       F  0.89803475  0.68383169  0.84301632    -0.19500
H2232       H  0.86250868  0.62782303  0.81492780     0.18200
H2233       H  0.80781565  0.75640808  0.86407474     0.18200
F2234       F  0.77374229  0.70261532  0.83362235    -0.19500
C2235       C  0.68080361  0.30667725  0.82290599    -0.20900
C2236       C  0.67069758  0.35222912  0.81894904    -0.09000
C2237       C  0.64264146  0.36493620  0.83151167     0.29900
C2238       C  0.62694525  0.33476991  0.85017282    -0.20900
C2239       C  0.63880374  0.29102190  0.85784023    -0.09000
C2240       C  0.66452602  0.27585951  0.84131429     0.29900
F2241       F  0.67488541  0.23202854  0.84400530    -0.19500
H2242       H  0.70169035  0.29520631  0.81239695     0.18200
H2243       H  0.60518476  0.34637862  0.85856093     0.18200
F2244       F  0.63005191  0.40672811  0.82574655    -0.19500
C2245       C  0.84832925  0.35583387  0.68212267    -0.20900
C2246       C  0.81688201  0.35060561  0.68467307    -0.09000
C2247       C  0.80261507  0.31273664  0.67079101     0.29900
C2248       C  0.81955126  0.28247870  0.65271641    -0.20900
C2249       C  0.85106386  0.28946951  0.64830796    -0.09000
C2250       C  0.86533962  0.32506322  0.66513700     0.29900
F2251       F  0.89585458  0.33188975  0.66374747    -0.19500
H2252       H  0.85985307  0.38417497  0.69329545     0.18200
H2253       H  0.80780237  0.25380848  0.64234930     0.18200
F2254       F  0.77219805  0.30606710  0.67370385    -0.19500
C2255       C  0.64475498  0.65844128  0.68246876    -0.20900
C2256       C  0.67645783  0.66171903  0.68389356    -0.09000
C2257       C  0.69132577  0.69597224  0.66733236     0.29900
C2258       C  0.67470751  0.72606130  0.64911001    -0.20900
C2259       C  0.64245996  0.72482711  0.64837566    -0.09000
C2260       C  0.62791720  0.68945803  0.66522148     0.29900
F2261       F  0.59717066  0.68535734  0.66548260    -0.19500
H2262       H  0.63293413  0.63165142  0.69485905     0.18200
H2263       H  0.68776888  0.74938965  0.63533471     0.18200
F2264       F  0.72209501  0.69876797  0.66746206    -0.19500
C2265       C  0.80283067  0.69148858  0.66471883    -0.20900
C2266       C  0.81831457  0.66076710  0.68339771    -0.09000
C2267       C  0.85010561  0.66235496  0.68437830     0.29900
C2268       C  0.86609411  0.69428460  0.66684801    -0.20900
C2269       C  0.85098771  0.72612581  0.64789102    -0.09000
C2270       C  0.81860636  0.72316923  0.64674463     0.29900
F2271       F  0.80161922  0.74784845  0.62709009    -0.19500
H2272       H  0.77835843  0.68939968  0.66291167     0.18200
H2273       H  0.89069519  0.69421613  0.66798322     0.18200
F2274       F  0.86573457  0.63307353  0.70247411    -0.19500
C2275       C  0.83011657  0.32024704  0.87134258    -0.20900
C2276       C  0.84821745  0.28651509  0.85684205    -0.09000
C2277       C  0.84403447  0.28052447  0.82532006     0.29900
C2278       C  0.82601360  0.31153772  0.80903521    -0.20900
C2279       C  0.81131224  0.34803313  0.82367399    -0.09000
C2280       C  0.81245405  0.35102033  0.85507953     0.29900
F2281       F  0.79673750  0.38415310  0.87007704    -0.19500
H2282       H  0.83100351  0.32438470  0.89558749     0.18200
H2283       H  0.82419077  0.30776428  0.78480381     0.18200
F2284       F  0.85596137  0.24440145  0.81000584    -0.19500
C2285       C  0.67018233  0.65176328  0.85512223    -0.20900
C2286       C  0.68175025  0.66385359  0.82679877    -0.09000
C2287       C  0.67771061  0.70951221  0.81675105     0.29900
C2288       C  0.65970660  0.74041656  0.83342650    -0.20900
C2289       C  0.64420438  0.72604992  0.85972573    -0.09000
C2290       C  0.65269087  0.68253186  0.87181636     0.29900
F2291       F  0.64450844  0.66910458  0.89997152    -0.19500
H2292       H  0.67467078  0.61801105  0.86458214     0.18200
H2293       H  0.65660790  0.77497006  0.82481738     0.18200
F2294       F  0.69007519  0.72389265  0.79035011    -0.19500
C2295       C  0.66302126  0.36885938  0.65235314    -0.20900
C2296       C  0.67781516  0.35305374  0.67831976    -0.09000
C2297       C  0.67725217  0.30543544  0.68447995     0.29900
C2298       C  0.65964197  0.27559781  0.66655200    -0.20900
C2299       C  0.64165567  0.29246328  0.64249573    -0.09000
C2300       C  0.64617671  0.33929302  0.63421087     0.29900
F2301       F  0.63563630  0.35713291  0.60797368    -0.19500
H2302       H  0.66477643  0.40464670  0.64554195     0.18200
H2303       H  0.65915087  0.23926796  0.67217168     0.18200
F2304       F  0.69309021  0.28772991  0.70801231    -0.19500
loop_ 
_geom_bond_atom_site_label_1 
_geom_bond_atom_site_label_2 
_geom_bond_distance 
_geom_bond_site_symmetry_2 
_ccdc_geom_bond_type 
O1          Zr13   2.442       .  S
O1            C3   1.290       .  A
O2          Zr39   2.417       .  S
O2            C3   1.285       .  A
C3          C508   1.482       .  S
O4          Zr16   2.417       .  S
O4            C6   1.283       .  A
O5          Zr40   2.433       .  S
O5            C6   1.288       .  A
C6          C528   1.463       .  S
O7          Zr16   2.430       .  S
O7            C9   1.287       .  A
O8          Zr39   2.439       .  S
O8            C9   1.288       .  A
C9          C568   1.488       .  S
O10         Zr13   2.460       .  S
O10          C12   1.292       .  A
O11         Zr40   2.430       .  S
O11          C12   1.286       .  A
C12         C558   1.484       .  S
Zr13         O14   2.434       .  S
Zr13         O15   2.434       .  S
Zr13         O19   2.379       .  S
Zr13         O20   2.360       .  S
Zr13         O43   2.368       .  S
Zr13         O45   2.371       .  S
O14          H57   0.989       .  S
O15          H56   0.990       .  S
O15          H60   0.990       .  S
Zr16         O17   2.436       .  S
Zr16         O18   2.435       .  S
Zr16         O20   2.369       .  S
Zr16         O19   2.363       .  S
Zr16         O44   2.365       .  S
Zr16         O46   2.376       .  S
O17          H58   0.990       .  S
O17          H61   0.990       .  S
O18          H51   0.990       .  S
O19         Zr39   2.384       .  S
O20         Zr40   2.384       .  S
O20          H47   0.965       .  S
O21         Zr33   2.447       .  S
O21          C23   1.289       .  A
O22         Zr40   2.441       .  S
O22          C23   1.290       .  A
C23         C498   1.484       .  S
O24         Zr36   2.436       .  S
O24          C26   1.288       .  A
O25         Zr39   2.417       .  S
O25          C26   1.284       .  A
C26         C518   1.467       .  S
O27         Zr36   2.435       .  S
O27          C29   1.287       .  A
O28         Zr40   2.421       .  S
O28          C29   1.286       .  A
C29         C538   1.465       .  S
O30         Zr33   2.438       .  S
O30          C32   1.288       .  A
O31         Zr39   2.426       .  S
O31          C32   1.286       .  A
C32         C551   1.471       .  S
Zr33         O34   2.437       .  S
Zr33         O35   2.434       .  S
Zr33         O41   2.365       .  S
Zr33         O42   2.372       .  S
Zr33         O45   2.373       .  S
Zr33         O43   2.372       .  S
O34          H54   0.990       .  S
O34          H59   0.990       .  S
O35          H55   0.990       .  S
Zr36         O37   2.433       .  S
Zr36         O38   2.437       .  S
Zr36         O42   2.368       .  S
Zr36         O41   2.368       .  S
Zr36         O46   2.373       .  S
Zr36         O44   2.364       .  S
O37          H53   0.990       .  S
O38          H52   0.990       .  S
O38          H62   0.990       .  S
Zr39         O42   2.385       .  S
Zr39         O44   2.380       .  S
Zr39         O45   2.395       .  S
Zr40         O41   2.385       .  S
Zr40         O43   2.384       .  S
Zr40         O46   2.386       .  S
O41          H49   0.965       .  S
O44          H48   0.965       .  S
O45          H50   0.965       .  S
O63         Zr75   2.434       .  S
O63          C65   1.287       .  A
O64        Zr677   2.433       .  S
O64          C65   1.288       .  A
C65         C488   1.489       .  S
O66         Zr78   2.444       .  S
O66          C68   1.290       .  A
O67       Zr1830   2.447   1_455  S
O67          C68   1.290       .  A
C68         C448   1.495       .  S
O69         Zr78   2.444       .  S
O69          C71   1.289       .  A
O70       Zr1829   2.422   1_455  S
O70          C71   1.285       .  A
C71         C468   1.475       .  S
O72         Zr75   2.431       .  S
O72          C74   1.286       .  A
O73        Zr678   2.446       .  S
O73          C74   1.291       .  A
C74         C458   1.479       .  S
Zr75         O76   2.435       .  S
Zr75         O77   2.435       .  S
Zr75         O81   2.370       .  S
Zr75         O82   2.366       .  S
Zr75        O681   2.370       .  S
Zr75        O683   2.364       .  S
O76         H119   0.990       .  S
O77         H118   0.990       .  S
O77         H122   0.990       .  S
Zr78         O79   2.435       .  S
Zr78         O80   2.435       .  S
Zr78       O1234   2.373   1_455  S
Zr78       O1233   2.372   1_455  S
Zr78        O682   2.368       .  S
Zr78        O684   2.369       .  S
O79         H120   0.990       .  S
O79         H123   0.990       .  S
O80         H113   0.990       .  S
O81       Zr1230   2.372       .  S
O81        Zr677   2.390       .  S
O82       Zr1230   2.364       .  S
O82        Zr678   2.389       .  S
O82         H109   0.967       .  S
O83         Zr95   2.417       .  S
O83          C85   1.284       .  A
O84        Zr102   2.432       .  S
O84          C85   1.288       .  A
C85         C441   1.465       .  S
O86         Zr98   2.445       .  S
O86          C88   1.289       .  A
O87       Zr1253   2.413   1_455  S
O87          C88   1.284       .  A
C88         C421   1.468       .  S
O89         Zr98   2.437       .  S
O89          C91   1.286       .  A
O90       Zr1254   2.447   1_455  S
O90          C91   1.291       .  A
C91         C428   1.478       .  S
O92         Zr95   2.422       .  S
O92          C94   1.285       .  A
O93        Zr101   2.448       .  S
O93          C94   1.290       .  A
C94         C481   1.487       .  S
Zr95         O96   2.434       .  S
Zr95         O97   2.433       .  S
Zr95        O103   2.371       .  S
Zr95        O104   2.366       .  S
Zr95        O107   2.365       .  S
Zr95        O105   2.364       .  S
O96         H116   0.990       .  S
O96         H121   0.990       .  S
O97         H117   0.990       .  S
Zr98         O99   2.435       .  S
Zr98        O100   2.435       .  S
Zr98        O108   2.378       .  S
Zr98        O106   2.366       .  S
Zr98       O1256   2.370   1_455  S
Zr98       O1255   2.370   1_455  S
O99         H115   0.990       .  S
O100        H114   0.990       .  S
O100        H124   0.990       .  S
Zr101       O640   2.424   1_554  S
Zr101      O1798   2.418   1_554  S
Zr101      O1239   2.413       .  S
Zr101       O104   2.383       .  S
Zr101       O107   2.378       .  S
Zr101       O657   2.387   1_554  S
Zr101      O1258   2.396       .  S
Zr102      O1795   2.429   1_554  S
Zr102       O649   2.439   1_554  S
Zr102      O1242   2.434       .  S
Zr102       O103   2.384       .  S
Zr102       O105   2.381       .  S
Zr102       O658   2.388   1_554  S
Zr102      O1260   2.385       .  S
O103      Zr1250   2.367       .  S
O103        H111   0.967       .  S
O104      Zr1250   2.376       .  S
O105       Zr651   2.367   1_554  S
O106       Zr654   2.375   1_554  S
O106      Zr1253   2.393   1_455  S
O106        H110   0.966       .  S
O107       Zr651   2.360   1_554  S
O107        H112   0.967       .  S
O108       Zr654   2.368   1_554  S
O108      Zr1254   2.386   1_455  S
C125        C398   1.553       .  S
C125        C408   1.551       .  S
C125        C491   1.563       .  S
C125        C548   1.558       .  S
O126       Zr138   2.447       .  S
O126        C128   1.290       .  A
O127       Zr740   2.410       .  S
O127        C128   1.282       .  A
C128        C411   1.470       .  S
O129       Zr141   2.462   1_565  S
O129        C131   1.293       .  A
O130       Zr741   2.433       .  S
O130        C131   1.288       .  A
C131        C388   1.486       .  S
O132       Zr141   2.444       .  S
O132        C134   1.290       .  A
O133       Zr740   2.434       .  S
O133        C134   1.288       .  A
C134        C371   1.480       .  S
O135       Zr138   2.438   1_565  S
O135        C137   1.287       .  A
O136       Zr741   2.443       .  S
O136        C137   1.291       .  A
C137        C358   1.481       .  S
Zr138       O139   2.434       .  S
Zr138       O140   2.436       .  S
Zr138       O144   2.370       .  S
Zr138       O145   2.367   1_545  S
Zr138       O744   2.380   1_545  S
Zr138       O746   2.366       .  S
O139        H182   0.990       .  S
O140        H181   0.990       .  S
O140        H185   0.990   1_545  S
Zr141       O142   2.436       .  S
Zr141       O143   2.434       .  S
Zr141       O145   2.366   1_545  S
Zr141       O144   2.379       .  S
Zr141       O745   2.373       .  S
Zr141       O747   2.370   1_545  S
O142        H183   0.990   1_545  S
O142        H186   0.990       .  S
O143        H176   0.990   1_545  S
O144       Zr740   2.394       .  S
O145       Zr741   2.393       .  S
O145        H172   0.965       .  S
O146       Zr158   2.430   1_565  S
O146        C148   1.285       .  A
O147       Zr165   2.444       .  S
O147        C148   1.290       .  A
C148        C378   1.473       .  S
O149       Zr161   2.426       .  S
O149        C151   1.286       .  A
O150       Zr164   2.432       .  S
O150        C151   1.287       .  A
C151        C341   1.486       .  S
O152       Zr161   2.422   1_565  S
O152        C154   1.284       .  A
O153       Zr165   2.439       .  S
O153        C154   1.289       .  A
C154        C351   1.468       .  S
O155       Zr158   2.418       .  S
O155        C157   1.285       .  A
O156       Zr164   2.440       .  S
O156        C157   1.289       .  A
C157        C328   1.482       .  S
Zr158       O159   2.435       .  S
Zr158       O160   2.435       .  S
Zr158       O166   2.364   1_545  S
Zr158       O167   2.372       .  S
Zr158       O170   2.371   1_554  S
Zr158       O168   2.369   1_544  S
O159        H179   0.990   1_545  S
O159        H184   0.990       .  S
O160        H180   0.990       .  S
Zr161       O162   2.434       .  S
Zr161       O163   2.434       .  S
Zr161       O167   2.369       .  S
Zr161       O166   2.362   1_545  S
Zr161       O171   2.373   1_545  S
Zr161       O169   2.359       .  S
O162        H178   0.990       .  S
O163        H177   0.990   1_545  S
O163        H187   0.990       .  S
Zr164       O703   2.413   1_554  S
Zr164       O709   2.430   1_554  S
Zr164       O167   2.382       .  S
Zr164       O169   2.389       .  S
Zr164       O170   2.388   1_554  S
Zr164       O720   2.391   1_554  S
Zr165       O706   2.437   1_554  S
Zr165       O712   2.429   1_554  S
Zr165       O166   2.382       .  S
Zr165       O168   2.386   1_554  S
Zr165       O171   2.385       .  S
Zr165       O721   2.390   1_554  S
O166        H174   0.965       .  S
O168       Zr714   2.377   1_565  S
O169       Zr717   2.374   1_554  S
O169        H173   0.967       .  S
O170       Zr714   2.364       .  S
O170        H175   0.967       .  S
O171       Zr717   2.370   1_564  S
C188        C318   1.566       .  S
C188        C391   1.566       .  S
C188        C451   1.565       .  S
C188        C561   1.562       .  S
O189       Zr201   2.451       .  S
O189        C191   1.291       .  A
O190      Zr1379   2.421       .  S
O190        C191   1.285       .  A
C191        C308   1.478       .  S
O192       Zr204   2.428   1_565  S
O192        C194   1.285       .  A
O193       Zr228   2.440       .  S
O193        C194   1.290       .  A
C194        C281   1.478       .  S
O195       Zr204   2.424       .  S
O195        C197   1.287       .  A
O196      Zr1379   2.421       .  S
O196        C197   1.284       .  A
C197        C401   1.481       .  S
O198       Zr201   2.444   1_565  S
O198        C200   1.288       .  A
O199       Zr228   2.440       .  S
O199        C200   1.290       .  A
C200        C298   1.476       .  S
Zr201       O202   2.436       .  S
Zr201       O203   2.435       .  S
Zr201       O207   2.369       .  S
Zr201       O208   2.375   1_545  S
Zr201       O231   2.373   1_545  S
Zr201      O1385   2.367       .  S
O202        H245   0.990   1_545  S
O203        H244   0.990       .  S
O203        H248   0.990   1_545  S
Zr204       O205   2.436       .  S
Zr204       O206   2.435       .  S
Zr204       O208   2.372   1_545  S
Zr204       O207   2.367       .  S
Zr204       O234   2.366   1_545  S
Zr204      O1384   2.364       .  S
O205        H246   0.990   1_545  S
O205        H249   0.990       .  S
O206        H239   0.990   1_545  S
O207      Zr1379   2.383       .  S
O208       Zr228   2.393       .  S
O208        H235   0.967       .  S
O209       Zr221   2.435   1_565  S
O209        C211   1.286       .  A
O210      Zr1380   2.437   1_455  S
O210        C211   1.289       .  A
C211        C288   1.473       .  S
O212       Zr224   2.442       .  S
O212        C214   1.290       .  A
O213       Zr227   2.422   1_455  S
O213        C214   1.285       .  A
C214        C258   1.484       .  S
O215       Zr224   2.441   1_565  S
O215        C217   1.289       .  A
O216      Zr1380   2.442   1_455  S
O216        C217   1.290       .  A
C217        C321   1.492       .  S
O218       Zr221   2.435       .  S
O218        C220   1.287       .  A
O219       Zr227   2.422   1_455  S
O219        C220   1.285       .  A
C220        C271   1.470       .  S
Zr221       O222   2.436       .  S
Zr221       O223   2.434       .  S
Zr221       O229   2.372   1_545  S
Zr221       O230   2.370       .  S
Zr221       O233   2.373   1_455  S
Zr221      O1383   2.372   1_445  S
O222        H242   0.990       .  S
O222        H247   0.990   1_545  S
O223        H243   0.990       .  S
Zr224       O225   2.434       .  S
Zr224       O226   2.436       .  S
Zr224       O230   2.368       .  S
Zr224       O229   2.367   1_545  S
Zr224       O232   2.367   1_455  S
Zr224      O1386   2.369   1_445  S
O225        H241   0.990       .  S
O226        H240   0.990   1_545  S
O226        H250   0.990       .  S
Zr227      O1342   2.422       .  S
Zr227      O1348   2.430       .  S
Zr227       O230   2.384   1_655  S
Zr227       O232   2.388       .  S
Zr227       O233   2.390       .  S
Zr227      O1359   2.383       .  S
Zr228      O1362   2.440       .  S
Zr228      O1368   2.452       .  S
Zr228       O231   2.390       .  S
Zr228       O234   2.381       .  S
Zr228      O1381   2.391       .  S
O229      Zr1380   2.390   1_455  S
O229        H237   0.967       .  S
O231      Zr1373   2.372   1_565  S
O232      Zr1356   2.371       .  S
O232        H236   0.966   1_655  S
O233      Zr1353   2.367       .  S
O233        H238   0.966       .  S
O234      Zr1376   2.369   1_565  S
C251        C301   1.565       .  S
C251        C381   1.562       .  S
C251        C438   1.558       .  S
C251        C541   1.561       .  S
C252        C268   1.556       .  S
C252        C338   1.560       .  S
C252        C418   1.552       .  S
C252        C571   1.560       .  S
C253        C311   1.558       .  S
C253        C331   1.553       .  S
C253        C478   1.559       .  S
C253        C521   1.553       .  S
C254        C291   1.560       .  S
C254        C348   1.561       .  S
C254        C431   1.569       .  S
C254        C531   1.555       .  S
C255        C261   1.556       .  S
C255        C368   1.555       .  S
C255        C471   1.558       .  S
C255        C511   1.558       .  S
C256        C278   1.563       .  S
C256        C361   1.569       .  S
C256        C461   1.569       .  S
C256        C501   1.571       .  S
C257        C258   1.399       .  A
C257        C262   1.388       .  A
C257        H264   1.083       .  S
C258        C259   1.409       .  A
C259        C260   1.404       .  A
C259        F266   1.357       .  S
C260        C261   1.414       .  A
C260        H265   1.082       .  S
C261        C262   1.421       .  A
C262        F263   1.356       .  S
C267        C268   1.413       .  A
C267        C272   1.401       .  A
C267        H274   1.079       .  S
C268        C269   1.421       .  A
C269        C270   1.391       .  A
C269        F276   1.358       .  S
C270        C271   1.397       .  A
C270        H275   1.084       .  S
C271        C272   1.404       .  A
C272        F273   1.357       .  S
C277        C278   1.416       .  A
C277        C282   1.397       .  A
C277        H284   1.077       .  S
C278        C279   1.421       .  A
C279        C280   1.397       .  A
C279        F286   1.358       .  S
C280        C281   1.401       .  A
C280        H285   1.084       .  S
C281        C282   1.400       .  A
C282        F283   1.354       .  S
C287        C288   1.397       .  A
C287        C292   1.398       .  A
C287        H294   1.084       .  S
C288        C289   1.401       .  A
C289        C290   1.397       .  A
C289        F296   1.357       .  S
C290        C291   1.416       .  A
C290        H295   1.083       .  S
C291        C292   1.425       .  A
C292        F293   1.355       .  S
C297        C298   1.400       .  A
C297        C302   1.400       .  A
C297        H304   1.083       .  S
C298        C299   1.398       .  A
C299        C300   1.397       .  A
C299        F306   1.354       .  S
C300        C301   1.418       .  A
C300        H305   1.078       .  S
C301        C302   1.420       .  A
C302        F303   1.358       .  S
C307        C308   1.397       .  A
C307        C312   1.392       .  A
C307        H314   1.084       .  S
C308        C309   1.407       .  A
C309        C310   1.404       .  A
C309        F316   1.357       .  S
C310        C311   1.413       .  A
C310        H315   1.080       .  S
C311        C312   1.420       .  A
C312        F313   1.357       .  S
C317        C318   1.415       .  A
C317        C322   1.392       .  A
C317        H324   1.081       .  S
C318        C319   1.420       .  A
C319        C320   1.410       .  A
C319        F326   1.355       .  S
C320        C321   1.407       .  A
C320        H325   1.083       .  S
C321        C322   1.406       .  A
C322        F323   1.357       .  S
C327        C328   1.404       .  A
C327        C332   1.403       .  A
C327        H334   1.083       .  S
C328        C329   1.406       .  A
C329        C330   1.388       .  A
C329        F336   1.359       .  S
C330        C331   1.413       .  A
C330        H335   1.081       .  S
C331        C332   1.418       .  A
C332        F333   1.356       .  S
C337        C338   1.416       .  A
C337        C342   1.387       .  A
C337        H344   1.081       .  S
C338        C339   1.417       .  A
C339        C340   1.406       .  A
C339        F346   1.356       .  S
C340        C341   1.407       .  A
C340        H345   1.083       .  S
C341        C342   1.405       .  A
C342        F343   1.359       .  S
C347        C348   1.417       .  A
C347        C352   1.398       .  A
C347        H354   1.078       .  S
C348        C349   1.421       .  A
C349        C350   1.396       .  A
C349        F356   1.357       .  S
C350        C351   1.398       .  A
C350        H355   1.084       .  S
C351        C352   1.397       .  A
C352        F353   1.355       .  S
C357        C358   1.402       .  A
C357        C362   1.401       .  A
C357        H364   1.083       .  S
C358        C359   1.398       .  A
C359        C360   1.396       .  A
C359        F366   1.353       .  S
C360        C361   1.417       .  A
C360        H365   1.075       .  S
C361        C362   1.423       .  A
C362        F363   1.358       .  S
C367        C368   1.414       .  A
C367        C372   1.392       .  A
C367        H374   1.083       .  S
C368        C369   1.419       .  A
C369        C370   1.406       .  A
C369        F376   1.355       .  S
C370        C371   1.405       .  A
C370        H375   1.083       .  S
C371        C372   1.402       .  A
C372        F373   1.358       .  S
C377        C378   1.401       .  A
C377        C382   1.399       .  A
C377        H384   1.084       .  S
C378        C379   1.396       .  A
C379        C380   1.396       .  A
C379        F386   1.354       .  S
C380        C381   1.419       .  A
C380        H385   1.077       .  S
C381        C382   1.420       .  A
C382        F383   1.357       .  S
C387        C388   1.400       .  A
C387        C392   1.398       .  A
C387        H394   1.084       .  S
C388        C389   1.406       .  A
C389        C390   1.405       .  A
C389        F396   1.355       .  S
C390        C391   1.415       .  A
C390        H395   1.080       .  S
C391        C392   1.421       .  A
C392        F393   1.358       .  S
C397        C398   1.415       .  A
C397        C402   1.404       .  A
C397        H404   1.083       .  S
C398        C399   1.422       .  A
C399        C400   1.384       .  A
C399        F406   1.357       .  S
C400        C401   1.399       .  A
C400        H405   1.084       .  S
C401        C402   1.407       .  A
C402        F403   1.357       .  S
C407        C408   1.413       .  A
C407        C412   1.402       .  A
C407        H414   1.080       .  S
C408        C409   1.420       .  A
C409        C410   1.389       .  A
C409        F416   1.356       .  S
C410        C411   1.395       .  A
C410        H415   1.084       .  S
C411        C412   1.406       .  A
C412        F413   1.358       .  S
C417        C418   1.419       .  A
C417        C422   1.392       .  A
C417        H424   1.083       .  S
C418        C419   1.417       .  A
C419        C420   1.401       .  A
C419        F426   1.354       .  S
C420        C421   1.402       .  A
C420        H425   1.084       .  S
C421        C422   1.398       .  A
C422        F423   1.358       .  S
C427        C428   1.396       .  A
C427        C432   1.400       .  A
C427        H434   1.083       .  S
C428        C429   1.403       .  A
C429        C430   1.401       .  A
C429        F436   1.358       .  S
C430        C431   1.418       .  A
C430        H435   1.083       .  S
C431        C432   1.425       .  A
C432        F433   1.354       .  S
C437        C438   1.417       .  A
C437        C442   1.396       .  A
C437        H444   1.078       .  S
C438        C439   1.421       .  A
C439        C440   1.394       .  A
C439        F446   1.358       .  S
C440        C441   1.398       .  A
C440        H445   1.084       .  S
C441        C442   1.398       .  A
C442        F443   1.357       .  S
C447        C448   1.402       .  A
C447        C452   1.393       .  A
C447        H454   1.083       .  S
C448        C449   1.409       .  A
C449        C450   1.410       .  A
C449        F456   1.357       .  S
C450        C451   1.417       .  A
C450        H455   1.082       .  S
C451        C452   1.421       .  A
C452        F453   1.356       .  S
C457        C458   1.401       .  A
C457        C462   1.398       .  A
C457        H464   1.083       .  S
C458        C459   1.400       .  A
C459        C460   1.400       .  A
C459        F466   1.358       .  S
C460        C461   1.422       .  A
C460        H465   1.077       .  S
C461        C462   1.420       .  A
C462        F463   1.358       .  S
C467        C468   1.404       .  A
C467        C472   1.406       .  A
C467        H474   1.083       .  S
C468        C469   1.400       .  A
C469        C470   1.389       .  A
C469        F476   1.358       .  S
C470        C471   1.413       .  A
C470        H475   1.083       .  S
C471        C472   1.421       .  A
C472        F473   1.355       .  S
C477        C478   1.415       .  A
C477        C482   1.390       .  A
C477        H484   1.081       .  S
C478        C479   1.418       .  A
C479        C480   1.406       .  A
C479        F486   1.356       .  S
C480        C481   1.404       .  A
C480        H485   1.083       .  S
C481        C482   1.406       .  A
C482        F483   1.359       .  S
C487        C488   1.406       .  A
C487        C492   1.405       .  A
C487        H494   1.083       .  S
C488        C489   1.406       .  A
C489        C490   1.390       .  A
C489        F496   1.358       .  S
C490        C491   1.415       .  A
C490        H495   1.081       .  S
C491        C492   1.418       .  A
C492        F493   1.356       .  S
C497        C498   1.401       .  A
C497        C502   1.401       .  A
C497        H504   1.083       .  S
C498        C499   1.402       .  A
C499        C500   1.401       .  A
C499        F506   1.358       .  S
C500        C501   1.420       .  A
C500        H505   1.077       .  S
C501        C502   1.422       .  A
C502        F503   1.358       .  S
C507        C508   1.405       .  A
C507        C512   1.402       .  A
C507        H514   1.083       .  S
C508        C509   1.402       .  A
C509        C510   1.391       .  A
C509        F516   1.358       .  S
C510        C511   1.417       .  A
C510        H515   1.081       .  S
C511        C512   1.417       .  A
C512        F513   1.354       .  S
C517        C518   1.394       .  A
C517        C522   1.386       .  A
C517        H524   1.084       .  S
C518        C519   1.404       .  A
C519        C520   1.404       .  A
C519        F526   1.358       .  S
C520        C521   1.416       .  A
C520        H525   1.080       .  S
C521        C522   1.417       .  A
C522        F523   1.357       .  S
C527        C528   1.398       .  A
C527        C532   1.393       .  A
C527        H534   1.084       .  S
C528        C529   1.396       .  A
C529        C530   1.396       .  A
C529        F536   1.356       .  S
C530        C531   1.419       .  A
C530        H535   1.078       .  S
C531        C532   1.418       .  A
C532        F533   1.357       .  S
C537        C538   1.394       .  A
C537        C542   1.394       .  A
C537        H544   1.082       .  S
C538        C539   1.398       .  A
C539        C540   1.397       .  A
C539        F546   1.358       .  S
C540        C541   1.420       .  A
C540        H545   1.083       .  S
C541        C542   1.423       .  A
C542        F543   1.353       .  S
C547        C548   1.415       .  A
C547        C552   1.388       .  A
C547        H554   1.083       .  S
C548        C549   1.422       .  A
C549        C550   1.404       .  A
C549        F556   1.355       .  S
C550        C551   1.402       .  A
C550        H555   1.083       .  S
C551        C552   1.399       .  A
C552        F553   1.358       .  S
C557        C558   1.397       .  A
C557        C562   1.394       .  A
C557        H564   1.084       .  S
C558        C559   1.408       .  A
C559        C560   1.409       .  A
C559        F566   1.358       .  S
C560        C561   1.416       .  A
C560        H565   1.080       .  S
C561        C562   1.420       .  A
C562        F563   1.356       .  S
C567        C568   1.401       .  A
C567        C572   1.389       .  A
C567        H574   1.083       .  S
C568        C569   1.408       .  A
C569        C570   1.405       .  A
C569        F576   1.357       .  S
C570        C571   1.415       .  A
C570        H575   1.083       .  S
C571        C572   1.423       .  A
C572        F573   1.357       .  S
O577       Zr589   2.453       .  S
O577        C579   1.291       .  A
O578       Zr615   2.424       .  S
O578        C579   1.285       .  A
C579       C1084   1.477       .  S
O580       Zr592   2.429       .  S
O580        C582   1.285       .  A
O581       Zr616   2.443       .  S
O581        C582   1.290       .  A
C582       C1104   1.476       .  S
O583       Zr592   2.429       .  S
O583        C585   1.287       .  A
O584       Zr615   2.440       .  S
O584        C585   1.288       .  A
C585       C1144   1.488       .  S
O586       Zr589   2.449       .  S
O586        C588   1.290       .  A
O587       Zr616   2.440       .  S
O587        C588   1.289       .  A
C588       C1134   1.483       .  S
Zr589       O590   2.436       .  S
Zr589       O591   2.437       .  S
Zr589       O595   2.377       .  S
Zr589       O596   2.373       .  S
Zr589       O619   2.376       .  S
Zr589       O621   2.368       .  S
O590        H633   0.990       .  S
O591        H632   0.990       .  S
O591        H636   0.990       .  S
Zr592       O593   2.436       .  S
Zr592       O594   2.435       .  S
Zr592       O596   2.369       .  S
Zr592       O595   2.372       .  S
Zr592       O620   2.367       .  S
Zr592       O622   2.372       .  S
O593        H634   0.990       .  S
O593        H637   0.990       .  S
O594        H627   0.990       .  S
O595       Zr615   2.383       .  S
O596       Zr616   2.386       .  S
O596        H623   0.965       .  S
O597       Zr609   2.448       .  S
O597        C599   1.290       .  A
O598       Zr616   2.425       .  S
O598        C599   1.287       .  A
C599       C1074   1.477       .  S
O600       Zr612   2.445       .  S
O600        C602   1.290       .  A
O601       Zr615   2.411       .  S
O601        C602   1.283       .  A
C602       C1094   1.470       .  S
O603       Zr612   2.450       .  S
O603        C605   1.289       .  A
O604       Zr616   2.448       .  S
O604        C605   1.291       .  A
C605       C1114   1.486       .  S
O606       Zr609   2.450       .  S
O606        C608   1.290       .  A
O607       Zr615   2.417       .  S
O607        C608   1.284       .  A
C608       C1127   1.471       .  S
Zr609       O610   2.435       .  S
Zr609       O611   2.435       .  S
Zr609       O617   2.370       .  S
Zr609       O618   2.368       .  S
Zr609       O621   2.372       .  S
Zr609       O619   2.374       .  S
O610        H630   0.990       .  S
O610        H635   0.990       .  S
O611        H631   0.990       .  S
Zr612       O613   2.434       .  S
Zr612       O614   2.436       .  S
Zr612       O618   2.371       .  S
Zr612       O617   2.366       .  S
Zr612       O622   2.375       .  S
Zr612       O620   2.370       .  S
O613        H629   0.990       .  S
O614        H628   0.990       .  S
O614        H638   0.990       .  S
Zr615       O618   2.391       .  S
Zr615       O620   2.387       .  S
Zr615       O621   2.390       .  S
Zr616       O617   2.392       .  S
Zr616       O619   2.393       .  S
Zr616       O622   2.382       .  S
O617        H625   0.965       .  S
O620        H624   0.965       .  S
O621        H626   0.965       .  S
O639       Zr651   2.439       .  S
O639        C641   1.288       .  A
O640        C641   1.286       .  A
C641       C1064   1.488       .  S
O642       Zr654   2.444       .  S
O642        C644   1.290       .  A
O643      Zr1254   2.446   1_456  S
O643        C644   1.290       .  A
C644       C1024   1.494       .  S
O645       Zr654   2.428       .  S
O645        C647   1.287       .  A
O646      Zr1253   2.441   1_456  S
O646        C647   1.289       .  A
C647       C1044   1.486       .  S
O648       Zr651   2.426       .  S
O648        C650   1.285       .  A
O649        C650   1.289       .  A
C650       C1034   1.475       .  S
Zr651       O652   2.436       .  S
Zr651       O653   2.438       .  S
Zr651       O657   2.366       .  S
Zr651       O658   2.372       .  S
O652        H695   0.990       .  S
O653        H694   0.990       .  S
O653        H698   0.990       .  S
Zr654       O655   2.436       .  S
Zr654       O656   2.434       .  S
Zr654      O1810   2.363   1_455  S
Zr654      O1809   2.373   1_455  S
O655        H696   0.990       .  S
O655        H699   0.990       .  S
O656        H689   0.990       .  S
O657      Zr1806   2.372       .  S
O658      Zr1806   2.367       .  S
O658        H685   0.967       .  S
O659       Zr671   2.432       .  S
O659        C661   1.286       .  A
O660       Zr678   2.431       .  S
O660        C661   1.288       .  A
C661       C1017   1.473       .  S
O662       Zr674   2.434       .  S
O662        C664   1.287       .  A
O663      Zr1829   2.424   1_455  S
O663        C664   1.286       .  A
C664        C997   1.470       .  S
O665       Zr674   2.441       .  S
O665        C667   1.287       .  A
O666      Zr1830   2.443   1_455  S
O666        C667   1.290       .  A
C667       C1004   1.478       .  S
O668       Zr671   2.419       .  S
O668        C670   1.285       .  A
O669       Zr677   2.448       .  S
O669        C670   1.290       .  A
C670       C1057   1.486       .  S
Zr671       O672   2.436       .  S
Zr671       O673   2.435       .  S
Zr671       O679   2.370       .  S
Zr671       O680   2.370       .  S
Zr671       O683   2.370       .  S
Zr671       O681   2.362       .  S
O672        H692   0.990       .  S
O672        H697   0.990       .  S
O673        H693   0.990       .  S
Zr674       O675   2.435       .  S
Zr674       O676   2.436       .  S
Zr674      O1832   2.375   1_455  S
Zr674      O1831   2.368   1_455  S
Zr674       O684   2.371       .  S
Zr674       O682   2.372       .  S
O675        H691   0.990       .  S
O676        H690   0.990       .  S
O676        H700   0.990       .  S
Zr677      O1222   2.437       .  S
Zr677      O1815   2.422       .  S
Zr677       O680   2.387       .  S
Zr677      O1834   2.393       .  S
Zr677       O683   2.387       .  S
Zr678      O1219   2.432       .  S
Zr678      O1818   2.440       .  S
Zr678       O679   2.390       .  S
Zr678       O681   2.384       .  S
Zr678      O1836   2.389       .  S
O679      Zr1826   2.374       .  S
O679        H687   0.967       .  S
O680      Zr1826   2.371       .  S
O682      Zr1829   2.393   1_455  S
O682        H686   0.966       .  S
O683        H688   0.967       .  S
O684      Zr1830   2.385   1_455  S
C701        C974   1.557       .  S
C701        C984   1.551       .  S
C701       C1067   1.561       .  S
C701       C1124   1.561       .  S
O702       Zr714   2.450       .  S
O702        C704   1.291       .  A
O703        C704   1.284       .  A
C704        C987   1.471       .  S
O705       Zr717   2.458   1_565  S
O705        C707   1.292       .  A
O706        C707   1.288       .  A
C707        C964   1.485       .  S
O708       Zr717   2.436       .  S
O708        C710   1.288       .  A
O709        C710   1.287       .  A
C710        C947   1.485       .  S
O711       Zr714   2.435   1_565  S
O711        C713   1.288       .  A
O712        C713   1.288       .  A
C713        C934   1.474       .  S
Zr714       O715   2.435       .  S
Zr714       O716   2.435       .  S
Zr714       O720   2.367       .  S
Zr714       O721   2.367   1_545  S
O715        H758   0.990       .  S
O716        H757   0.990       .  S
O716        H761   0.990       .  S
Zr717       O718   2.438       .  S
Zr717       O719   2.434       .  S
Zr717       O721   2.360   1_545  S
Zr717       O720   2.372       .  S
O718        H759   0.990       .  S
O718        H762   0.990   1_545  S
O719        H752   0.990   1_545  S
O721        H748   0.965       .  S
O722       Zr734   2.433   1_565  S
O722        C724   1.286       .  A
O723       Zr741   2.446       .  S
O723        C724   1.291       .  A
C724        C954   1.476       .  S
O725       Zr737   2.426       .  S
O725        C727   1.286       .  A
O726       Zr740   2.431       .  S
O726        C727   1.287       .  A
C727        C917   1.486       .  S
O728       Zr737   2.435   1_565  S
O728        C730   1.287       .  A
O729       Zr741   2.458       .  S
O729        C730   1.293       .  A
C730        C927   1.484       .  S
O731       Zr734   2.432       .  S
O731        C733   1.287       .  A
O732       Zr740   2.441       .  S
O732        C733   1.289       .  A
C733        C904   1.490       .  S
Zr734       O735   2.437       .  S
Zr734       O736   2.435       .  S
Zr734       O742   2.367   1_545  S
Zr734       O743   2.368       .  S
Zr734       O746   2.371       .  S
Zr734       O744   2.377   1_545  S
O735        H755   0.990   1_545  S
O735        H760   0.990       .  S
O736        H756   0.990       .  S
Zr737       O738   2.434       .  S
Zr737       O739   2.434       .  S
Zr737       O743   2.371       .  S
Zr737       O742   2.364   1_545  S
Zr737       O747   2.371   1_545  S
Zr737       O745   2.364       .  S
O738        H754   0.990   1_545  S
O739        H753   0.990   1_545  S
O739        H763   0.990       .  S
Zr740       O743   2.387       .  S
Zr740       O745   2.392       .  S
Zr740       O746   2.390       .  S
Zr741       O742   2.386       .  S
Zr741       O744   2.393       .  S
Zr741       O747   2.387       .  S
O742        H750   0.965       .  S
O745        H749   0.967       .  S
O746        H751   0.967       .  S
C764        C894   1.566       .  S
C764        C967   1.566       .  S
C764       C1027   1.565       .  S
C764       C1137   1.560       .  S
O765       Zr777   2.443       .  S
O765        C767   1.290       .  A
O766      Zr1955   2.424       .  S
O766        C767   1.285       .  A
C767        C884   1.473       .  S
O768       Zr780   2.425   1_565  S
O768        C770   1.285       .  A
O769       Zr804   2.443       .  S
O769        C770   1.290       .  A
C770        C857   1.481       .  S
O771       Zr780   2.427       .  S
O771        C773   1.287       .  A
O772      Zr1955   2.437       .  S
O772        C773   1.288       .  A
C773        C977   1.486       .  S
O774       Zr777   2.442   1_565  S
O774        C776   1.288       .  A
O775       Zr804   2.426       .  S
O775        C776   1.287       .  A
C776        C874   1.476       .  S
Zr777       O778   2.434       .  S
Zr777       O779   2.435       .  S
Zr777       O783   2.375       .  S
Zr777       O784   2.373   1_545  S
Zr777       O807   2.369   1_545  S
Zr777      O1961   2.362       .  S
O778        H821   0.990       .  S
O779        H820   0.990       .  S
O779        H824   0.990   1_545  S
Zr780       O781   2.434       .  S
Zr780       O782   2.435       .  S
Zr780       O784   2.367   1_545  S
Zr780       O783   2.372       .  S
Zr780      O1960   2.365       .  S
Zr780       O810   2.366   1_545  S
O781        H822   0.990       .  S
O781        H825   0.990       .  S
O782        H815   0.990   1_545  S
O783      Zr1955   2.387       .  S
O784       Zr804   2.387       .  S
O784        H811   0.968       .  S
O785       Zr797   2.439   1_565  S
O785        C787   1.288       .  A
O786      Zr1956   2.441   1_455  S
O786        C787   1.290       .  A
C787        C864   1.478       .  S
O788       Zr800   2.444       .  S
O788        C790   1.290       .  A
O789       Zr803   2.422   1_455  S
O789        C790   1.285       .  A
C790        C834   1.479       .  S
O791       Zr800   2.436   1_565  S
O791        C793   1.288       .  A
O792      Zr1956   2.443   1_455  S
O792        C793   1.290       .  A
C793        C897   1.490       .  S
O794       Zr797   2.440       .  S
O794        C796   1.288       .  A
O795       Zr803   2.429   1_455  S
O795        C796   1.286       .  A
C796        C847   1.477       .  S
Zr797       O798   2.434       .  S
Zr797       O799   2.435       .  S
Zr797       O805   2.371   1_545  S
Zr797       O806   2.371       .  S
Zr797       O809   2.371   1_455  S
Zr797      O1959   2.369   1_445  S
O798        H818   0.990       .  S
O798        H823   0.990       .  S
O799        H819   0.990       .  S
Zr800       O801   2.436       .  S
Zr800       O802   2.434       .  S
Zr800       O806   2.366       .  S
Zr800       O805   2.366   1_545  S
Zr800      O1962   2.375   1_445  S
Zr800       O808   2.365   1_455  S
O801        H817   0.990   1_545  S
O802        H816   0.990   1_545  S
O802        H826   0.990       .  S
Zr803      O1918   2.415       .  S
Zr803      O1924   2.424       .  S
Zr803      O1935   2.387       .  S
Zr803       O806   2.379   1_655  S
Zr803       O808   2.385       .  S
Zr803       O809   2.391       .  S
Zr804      O1938   2.435       .  S
Zr804      O1944   2.430       .  S
Zr804      O1957   2.388       .  S
Zr804       O807   2.383       .  S
Zr804       O810   2.380       .  S
O805      Zr1956   2.387   1_455  S
O805        H813   0.967       .  S
O807      Zr1949   2.369   1_565  S
O808      Zr1932   2.370       .  S
O808        H812   0.966       .  S
O809      Zr1929   2.369       .  S
O809        H814   0.966       .  S
O810      Zr1952   2.366   1_565  S
C827        C877   1.568       .  S
C827        C957   1.564       .  S
C827       C1014   1.562       .  S
C827       C1117   1.576       .  S
C828        C844   1.561       .  S
C828        C914   1.558       .  S
C828        C994   1.551       .  S
C828       C1147   1.559       .  S
C829        C887   1.558       .  S
C829        C907   1.557       .  S
C829       C1054   1.558       .  S
C829       C1097   1.555       .  S
C830        C867   1.567       .  S
C830        C924   1.574       .  S
C830       C1007   1.572       .  S
C830       C1107   1.565       .  S
C831        C837   1.557       .  S
C831        C944   1.558       .  S
C831       C1047   1.559       .  S
C831       C1087   1.559       .  S
C832        C854   1.567       .  S
C832        C937   1.565       .  S
C832       C1037   1.566       .  S
C832       C1077   1.567       .  S
C833        C834   1.397       .  A
C833        C838   1.390       .  A
C833        H840   1.084       .  S
C834        C835   1.408       .  A
C835        C836   1.405       .  A
C835        F842   1.357       .  S
C836        C837   1.413       .  A
C836        H841   1.081       .  S
C837        C838   1.419       .  A
C838        F839   1.357       .  S
C843        C844   1.415       .  A
C843        C848   1.404       .  A
C843        H850   1.080       .  S
C844        C845   1.419       .  A
C845        C846   1.391       .  A
C845        F852   1.357       .  S
C846        C847   1.398       .  A
C846        H851   1.084       .  S
C847        C848   1.406       .  A
C848        F849   1.357       .  S
C853        C854   1.418       .  A
C853        C858   1.398       .  A
C853        H860   1.076       .  S
C854        C855   1.422       .  A
C855        C856   1.397       .  A
C855        F862   1.358       .  S
C856        C857   1.402       .  A
C856        H861   1.084       .  S
C857        C858   1.400       .  A
C858        F859   1.354       .  S
C863        C864   1.398       .  A
C863        C868   1.402       .  A
C863        H870   1.084       .  S
C864        C865   1.401       .  A
C865        C866   1.397       .  A
C865        F872   1.357       .  S
C866        C867   1.417       .  A
C866        H871   1.083       .  S
C867        C868   1.428       .  A
C868        F869   1.353       .  S
C873        C874   1.398       .  A
C873        C878   1.399       .  A
C873        H880   1.084       .  S
C874        C875   1.399       .  A
C875        C876   1.398       .  A
C875        F882   1.354       .  S
C876        C877   1.417       .  A
C876        H881   1.076       .  S
C877        C878   1.424       .  A
C878        F879   1.357       .  S
C883        C884   1.395       .  A
C883        C888   1.390       .  A
C883        H890   1.084       .  S
C884        C885   1.406       .  A
C885        C886   1.405       .  A
C885        F892   1.358       .  S
C886        C887   1.415       .  A
C886        H891   1.080       .  S
C887        C888   1.420       .  A
C888        F889   1.357       .  S
C893        C894   1.416       .  A
C893        C898   1.393       .  A
C893        H900   1.081       .  S
C894        C895   1.420       .  A
C895        C896   1.408       .  A
C895        F902   1.354       .  S
C896        C897   1.405       .  A
C896        H901   1.083       .  S
C897        C898   1.405       .  A
C898        F899   1.358       .  S
C903        C904   1.406       .  A
C903        C908   1.406       .  A
C903        H910   1.083       .  S
C904        C905   1.407       .  A
C905        C906   1.388       .  A
C905        F912   1.358       .  S
C906        C907   1.413       .  A
C906        H911   1.081       .  S
C907        C908   1.419       .  A
C908        F909   1.357       .  S
C913        C914   1.412       .  A
C913        C918   1.386       .  A
C913        H920   1.080       .  S
C914        C915   1.420       .  A
C915        C916   1.407       .  A
C915        F922   1.355       .  S
C916        C917   1.406       .  A
C916        H921   1.083       .  S
C917        C918   1.406       .  A
C918        F919   1.358       .  S
C923        C924   1.421       .  A
C923        C928   1.403       .  A
C923        H930   1.077       .  S
C924        C925   1.421       .  A
C925        C926   1.401       .  A
C925        F932   1.358       .  S
C926        C927   1.402       .  A
C926        H931   1.083       .  S
C927        C928   1.400       .  A
C928        F929   1.355       .  S
C933        C934   1.400       .  A
C933        C938   1.397       .  A
C933        H940   1.083       .  S
C934        C935   1.398       .  A
C935        C936   1.393       .  A
C935        F942   1.355       .  S
C936        C937   1.418       .  A
C936        H941   1.075       .  S
C937        C938   1.421       .  A
C938        F939   1.358       .  S
C943        C944   1.415       .  A
C943        C948   1.388       .  A
C943        H950   1.081       .  S
C944        C945   1.417       .  A
C945        C946   1.406       .  A
C945        F952   1.356       .  S
C946        C947   1.407       .  A
C946        H951   1.083       .  S
C947        C948   1.405       .  A
C948        F949   1.358       .  S
C953        C954   1.401       .  A
C953        C958   1.400       .  A
C953        H960   1.084       .  S
C954        C955   1.397       .  A
C955        C956   1.396       .  A
C955        F962   1.353       .  S
C956        C957   1.419       .  A
C956        H961   1.077       .  S
C957        C958   1.420       .  A
C958        F959   1.358       .  S
C963        C964   1.399       .  A
C963        C968   1.396       .  A
C963        H970   1.084       .  S
C964        C965   1.406       .  A
C965        C966   1.406       .  A
C965        F972   1.355       .  S
C966        C967   1.416       .  A
C966        H971   1.080       .  S
C967        C968   1.421       .  A
C968        F969   1.357       .  S
C973        C974   1.415       .  A
C973        C978   1.406       .  A
C973        H980   1.083       .  S
C974        C975   1.422       .  A
C975        C976   1.387       .  A
C975        F982   1.357       .  S
C976        C977   1.401       .  A
C976        H981   1.084       .  S
C977        C978   1.408       .  A
C978        F979   1.357       .  S
C983        C984   1.413       .  A
C983        C988   1.402       .  A
C983        H990   1.080       .  S
C984        C985   1.420       .  A
C985        C986   1.391       .  A
C985        F992   1.357       .  S
C986        C987   1.396       .  A
C986        H991   1.084       .  S
C987        C988   1.405       .  A
C988        F989   1.358       .  S
C993        C994   1.416       .  A
C993        C998   1.390       .  A
C993       H1000   1.083       .  S
C994        C995   1.419       .  A
C995        C996   1.402       .  A
C995       F1002   1.355       .  S
C996        C997   1.402       .  A
C996       H1001   1.083       .  S
C997        C998   1.399       .  A
C998        F999   1.358       .  S
C1003      C1004   1.396       .  A
C1003      C1008   1.400       .  A
C1003      H1010   1.083       .  S
C1004      C1005   1.402       .  A
C1005      C1006   1.401       .  A
C1005      F1012   1.357       .  S
C1006      C1007   1.419       .  A
C1006      H1011   1.083       .  S
C1007      C1008   1.427       .  A
C1008      F1009   1.354       .  S
C1013      C1014   1.419       .  A
C1013      C1018   1.399       .  A
C1013      H1020   1.078       .  S
C1014      C1015   1.419       .  A
C1015      C1016   1.395       .  A
C1015      F1022   1.358       .  S
C1016      C1017   1.399       .  A
C1016      H1021   1.084       .  S
C1017      C1018   1.400       .  A
C1018      F1019   1.357       .  S
C1023      C1024   1.402       .  A
C1023      C1028   1.393       .  A
C1023      H1030   1.083       .  S
C1024      C1025   1.409       .  A
C1025      C1026   1.410       .  A
C1025      F1032   1.357       .  S
C1026      C1027   1.416       .  A
C1026      H1031   1.082       .  S
C1027      C1028   1.421       .  A
C1028      F1029   1.356       .  S
C1033      C1034   1.401       .  A
C1033      C1038   1.395       .  A
C1033      H1040   1.084       .  S
C1034      C1035   1.400       .  A
C1035      C1036   1.398       .  A
C1035      F1042   1.358       .  S
C1036      C1037   1.419       .  A
C1036      H1041   1.076       .  S
C1037      C1038   1.421       .  A
C1038      F1039   1.358       .  S
C1043      C1044   1.406       .  A
C1043      C1048   1.407       .  A
C1043      H1050   1.083       .  S
C1044      C1045   1.405       .  A
C1045      C1046   1.388       .  A
C1045      F1052   1.358       .  S
C1046      C1047   1.415       .  A
C1046      H1051   1.081       .  S
C1047      C1048   1.418       .  A
C1048      F1049   1.356       .  S
C1053      C1054   1.414       .  A
C1053      C1058   1.389       .  A
C1053      H1060   1.081       .  S
C1054      C1055   1.419       .  A
C1055      C1056   1.406       .  A
C1055      F1062   1.356       .  S
C1056      C1057   1.404       .  A
C1056      H1061   1.083       .  S
C1057      C1058   1.407       .  A
C1058      F1059   1.359       .  S
C1063      C1064   1.407       .  A
C1063      C1068   1.407       .  A
C1063      H1070   1.083       .  S
C1064      C1065   1.405       .  A
C1065      C1066   1.387       .  A
C1065      F1072   1.358       .  S
C1066      C1067   1.414       .  A
C1066      H1071   1.080       .  S
C1067      C1068   1.419       .  A
C1068      F1069   1.356       .  S
C1073      C1074   1.400       .  A
C1073      C1078   1.398       .  A
C1073      H1080   1.084       .  S
C1074      C1075   1.400       .  A
C1075      C1076   1.398       .  A
C1075      F1082   1.358       .  S
C1076      C1077   1.419       .  A
C1076      H1081   1.076       .  S
C1077      C1078   1.422       .  A
C1078      F1079   1.358       .  S
C1083      C1084   1.405       .  A
C1083      C1088   1.406       .  A
C1083      H1090   1.083       .  S
C1084      C1085   1.398       .  A
C1085      C1086   1.392       .  A
C1085      F1092   1.358       .  S
C1086      C1087   1.417       .  A
C1086      H1091   1.083       .  S
C1087      C1088   1.419       .  A
C1088      F1089   1.355       .  S
C1093      C1094   1.396       .  A
C1093      C1098   1.389       .  A
C1093      H1100   1.084       .  S
C1094      C1095   1.405       .  A
C1095      C1096   1.403       .  A
C1095      F1102   1.358       .  S
C1096      C1097   1.416       .  A
C1096      H1101   1.080       .  S
C1097      C1098   1.418       .  A
C1098      F1099   1.357       .  S
C1103      C1104   1.399       .  A
C1103      C1108   1.396       .  A
C1103      H1110   1.084       .  S
C1104      C1105   1.399       .  A
C1105      C1106   1.401       .  A
C1105      F1112   1.357       .  S
C1106      C1107   1.420       .  A
C1106      H1111   1.077       .  S
C1107      C1108   1.422       .  A
C1108      F1109   1.357       .  S
C1113      C1114   1.397       .  A
C1113      C1118   1.401       .  A
C1113      H1120   1.082       .  S
C1114      C1115   1.404       .  A
C1115      C1116   1.404       .  A
C1115      F1122   1.358       .  S
C1116      C1117   1.420       .  A
C1116      H1121   1.083       .  S
C1117      C1118   1.427       .  A
C1118      F1119   1.353       .  S
C1123      C1124   1.418       .  A
C1123      C1128   1.390       .  A
C1123      H1130   1.083       .  S
C1124      C1125   1.421       .  A
C1125      C1126   1.405       .  A
C1125      F1132   1.354       .  S
C1126      C1127   1.402       .  A
C1126      H1131   1.083       .  S
C1127      C1128   1.396       .  A
C1128      F1129   1.358       .  S
C1133      C1134   1.399       .  A
C1133      C1138   1.396       .  A
C1133      H1140   1.084       .  S
C1134      C1135   1.406       .  A
C1135      C1136   1.407       .  A
C1135      F1142   1.357       .  S
C1136      C1137   1.415       .  A
C1136      H1141   1.080       .  S
C1137      C1138   1.421       .  A
C1138      F1139   1.357       .  S
C1143      C1144   1.402       .  A
C1143      C1148   1.389       .  A
C1143      H1150   1.083       .  S
C1144      C1145   1.408       .  A
C1145      C1146   1.406       .  A
C1145      F1152   1.357       .  S
C1146      C1147   1.416       .  A
C1146      H1151   1.083       .  S
C1147      C1148   1.421       .  A
C1148      F1149   1.357       .  S
O1153     Zr1165   2.459       .  S
O1153      C1155   1.292       .  A
O1154     Zr1191   2.414       .  S
O1154      C1155   1.284       .  A
C1155      C1660   1.475       .  S
O1156     Zr1168   2.422       .  S
O1156      C1158   1.284       .  A
O1157     Zr1192   2.448       .  S
O1157      C1158   1.291       .  A
C1158      C1680   1.472       .  S
O1159     Zr1168   2.413       .  S
O1159      C1161   1.284       .  A
O1160     Zr1191   2.432       .  S
O1160      C1161   1.286       .  A
C1161      C1720   1.481       .  S
O1162     Zr1165   2.458       .  S
O1162      C1164   1.292       .  A
O1163     Zr1192   2.430       .  S
O1163      C1164   1.287       .  A
C1164      C1710   1.481       .  S
Zr1165     O1166   2.436       .  S
Zr1165     O1167   2.433       .  S
Zr1165     O1171   2.373       .  S
Zr1165     O1172   2.369       .  S
Zr1165     O1195   2.378       .  S
Zr1165     O1197   2.371       .  S
O1166      H1209   0.990       .  S
O1167      H1208   0.990       .  S
O1167      H1212   0.990       .  S
Zr1168     O1169   2.436       .  S
Zr1168     O1170   2.436       .  S
Zr1168     O1172   2.367       .  S
Zr1168     O1171   2.369       .  S
Zr1168     O1196   2.369       .  S
Zr1168     O1198   2.371       .  S
O1169      H1210   0.990       .  S
O1169      H1213   0.990       .  S
O1170      H1203   0.990       .  S
O1171     Zr1191   2.383       .  S
O1172     Zr1192   2.386       .  S
O1172      H1199   0.965       .  S
O1173     Zr1185   2.445       .  S
O1173      C1175   1.289       .  A
O1174     Zr1192   2.447       .  S
O1174      C1175   1.291       .  A
C1175      C1650   1.485       .  S
O1176     Zr1188   2.447       .  S
O1176      C1178   1.290       .  A
O1177     Zr1191   2.407       .  S
O1177      C1178   1.282       .  A
C1178      C1670   1.469       .  S
O1179     Zr1188   2.440       .  S
O1179      C1181   1.288       .  A
O1180     Zr1192   2.427       .  S
O1180      C1181   1.288       .  A
C1181      C1690   1.472       .  S
O1182     Zr1185   2.447       .  S
O1182      C1184   1.290       .  A
O1183     Zr1191   2.427       .  S
O1183      C1184   1.285       .  A
C1184      C1703   1.476       .  S
Zr1185     O1186   2.434       .  S
Zr1185     O1187   2.434       .  S
Zr1185     O1193   2.364       .  S
Zr1185     O1194   2.367       .  S
Zr1185     O1197   2.373       .  S
Zr1185     O1195   2.378       .  S
O1186      H1206   0.990       .  S
O1186      H1211   0.990       .  S
O1187      H1207   0.990       .  S
Zr1188     O1189   2.434       .  S
Zr1188     O1190   2.435       .  S
Zr1188     O1194   2.367       .  S
Zr1188     O1193   2.364       .  S
Zr1188     O1198   2.378       .  S
Zr1188     O1196   2.367       .  S
O1189      H1205   0.990       .  S
O1190      H1204   0.990       .  S
O1190      H1214   0.990       .  S
Zr1191     O1194   2.384       .  S
Zr1191     O1196   2.385       .  S
Zr1191     O1197   2.389       .  S
Zr1192     O1193   2.387       .  S
Zr1192     O1195   2.391       .  S
Zr1192     O1198   2.385       .  S
O1193      H1201   0.965       .  S
O1196      H1200   0.965       .  S
O1197      H1202   0.965       .  S
O1215     Zr1227   2.437       .  S
O1215      C1217   1.288       .  A
O1216     Zr1829   2.441       .  S
O1216      C1217   1.289       .  A
C1217      C1640   1.492       .  S
O1218     Zr1230   2.443       .  S
O1218      C1220   1.290       .  A
O1219      C1220   1.287       .  A
C1220      C1600   1.487       .  S
O1221     Zr1230   2.436       .  S
O1221      C1223   1.288       .  A
O1222      C1223   1.288       .  A
C1223      C1620   1.489       .  S
O1224     Zr1227   2.420       .  S
O1224      C1226   1.284       .  A
O1225     Zr1830   2.442       .  S
O1225      C1226   1.290       .  A
C1226      C1610   1.477       .  S
Zr1227     O1228   2.433       .  S
Zr1227     O1229   2.435       .  S
Zr1227     O1233   2.368       .  S
Zr1227     O1234   2.371       .  S
Zr1227     O1833   2.369       .  S
Zr1227     O1835   2.359       .  S
O1228      H1271   0.990       .  S
O1229      H1270   0.990       .  S
O1229      H1274   0.990       .  S
Zr1230     O1231   2.434       .  S
Zr1230     O1232   2.435       .  S
Zr1230     O1834   2.370       .  S
Zr1230     O1836   2.367       .  S
O1231      H1272   0.990       .  S
O1231      H1275   0.990       .  S
O1232      H1265   0.990       .  S
O1233     Zr1829   2.383       .  S
O1234     Zr1830   2.396       .  S
O1234      H1261   0.967       .  S
O1235     Zr1247   2.424       .  S
O1235      C1237   1.285       .  A
O1236     Zr1254   2.435       .  S
O1236      C1237   1.289       .  A
C1237      C1593   1.470       .  S
O1238     Zr1250   2.435       .  S
O1238      C1240   1.288       .  A
O1239      C1240   1.283       .  A
C1240      C1573   1.463       .  S
O1241     Zr1250   2.439       .  S
O1241      C1243   1.287       .  A
O1242      C1243   1.289       .  A
C1243      C1580   1.477       .  S
O1244     Zr1247   2.427       .  S
O1244      C1246   1.286       .  A
O1245     Zr1253   2.438       .  S
O1245      C1246   1.289       .  A
C1246      C1633   1.485       .  S
Zr1247     O1248   2.435       .  S
Zr1247     O1249   2.435       .  S
Zr1247     O1255   2.369       .  S
Zr1247     O1256   2.367       .  S
Zr1247     O1259   2.368       .  S
Zr1247     O1257   2.365       .  S
O1248      H1268   0.990       .  S
O1248      H1273   0.990       .  S
O1249      H1269   0.990       .  S
Zr1250     O1251   2.435       .  S
Zr1250     O1252   2.436       .  S
Zr1250     O1260   2.371       .  S
Zr1250     O1258   2.366       .  S
O1251      H1267   0.990       .  S
O1252      H1266   0.990       .  S
O1252      H1276   0.990       .  S
Zr1253     O1792   2.434   1_554  S
Zr1253     O1809   2.383   1_554  S
Zr1253     O1256   2.388       .  S
Zr1253     O1259   2.388       .  S
Zr1254     O1801   2.438   1_554  S
Zr1254     O1810   2.389   1_554  S
Zr1254     O1255   2.391       .  S
Zr1254     O1257   2.390       .  S
O1255      H1263   0.966       .  S
O1257     Zr1803   2.372   1_554  S
O1258     Zr1806   2.374   1_554  S
O1258      H1262   0.966       .  S
O1259     Zr1803   2.360   1_554  S
O1259      H1264   0.967       .  S
O1260     Zr1806   2.369   1_554  S
C1277      C1550   1.556       .  S
C1277      C1560   1.555       .  S
C1277      C1643   1.566       .  S
C1277      C1700   1.562       .  S
O1278     Zr1290   2.452       .  S
O1278      C1280   1.291       .  A
O1279     Zr1892   2.413       .  S
O1279      C1280   1.284       .  A
C1280      C1563   1.476       .  S
O1281     Zr1293   2.452   1_565  S
O1281      C1283   1.291       .  A
O1282     Zr1893   2.438       .  S
O1282      C1283   1.289       .  A
C1283      C1540   1.483       .  S
O1284     Zr1293   2.438       .  S
O1284      C1286   1.289       .  A
O1285     Zr1892   2.436       .  S
O1285      C1286   1.288       .  A
C1286      C1523   1.490       .  S
O1287     Zr1290   2.445   1_565  S
O1287      C1289   1.290       .  A
O1288     Zr1893   2.433       .  S
O1288      C1289   1.289       .  A
C1289      C1510   1.480       .  S
Zr1290     O1291   2.435       .  S
Zr1290     O1292   2.436       .  S
Zr1290     O1296   2.368       .  S
Zr1290     O1297   2.365   1_545  S
Zr1290     O1896   2.381   1_545  S
Zr1290     O1898   2.367       .  S
O1291      H1334   0.990       .  S
O1292      H1333   0.990   1_545  S
O1292      H1337   0.990       .  S
Zr1293     O1294   2.435       .  S
Zr1293     O1295   2.433       .  S
Zr1293     O1297   2.359   1_545  S
Zr1293     O1296   2.372       .  S
Zr1293     O1897   2.371       .  S
Zr1293     O1899   2.369   1_545  S
O1294      H1335   0.990       .  S
O1294      H1338   0.990       .  S
O1295      H1328   0.990   1_545  S
O1296     Zr1892   2.389       .  S
O1297     Zr1893   2.388       .  S
O1297      H1324   0.965       .  S
O1298     Zr1310   2.425   1_565  S
O1298      C1300   1.285       .  A
O1299     Zr1317   2.449       .  S
O1299      C1300   1.291       .  A
C1300      C1530   1.476       .  S
O1301     Zr1313   2.425       .  S
O1301      C1303   1.285       .  A
O1302     Zr1316   2.433       .  S
O1302      C1303   1.287       .  A
C1303      C1493   1.488       .  S
O1304     Zr1313   2.426   1_565  S
O1304      C1306   1.286       .  A
O1305     Zr1317   2.439       .  S
O1305      C1306   1.289       .  A
C1306      C1503   1.473       .  S
O1307     Zr1310   2.424       .  S
O1307      C1309   1.285       .  A
O1308     Zr1316   2.429       .  S
O1308      C1309   1.286       .  A
C1309      C1480   1.483       .  S
Zr1310     O1311   2.436       .  S
Zr1310     O1312   2.435       .  S
Zr1310     O1318   2.363   1_545  S
Zr1310     O1319   2.368       .  S
Zr1310     O1322   2.369       .  S
Zr1310     O1320   2.372   1_544  S
O1311      H1331   0.990       .  S
O1311      H1336   0.990       .  S
O1312      H1332   0.990       .  S
Zr1313     O1314   2.434       .  S
Zr1313     O1315   2.434       .  S
Zr1313     O1319   2.369       .  S
Zr1313     O1318   2.359   1_545  S
Zr1313     O1323   2.372   1_545  S
Zr1313     O1321   2.360       .  S
O1314      H1330   0.990   1_545  S
O1315      H1329   0.990   1_545  S
O1315      H1339   0.990       .  S
Zr1316     O1855   2.408   1_554  S
Zr1316     O1861   2.413   1_554  S
Zr1316     O1872   2.388   1_554  S
Zr1316     O1319   2.380       .  S
Zr1316     O1321   2.388       .  S
Zr1316     O1322   2.388       .  S
Zr1317     O1858   2.433   1_554  S
Zr1317     O1864   2.433   1_554  S
Zr1317     O1873   2.393   1_554  S
Zr1317     O1318   2.383       .  S
Zr1317     O1320   2.386   1_554  S
Zr1317     O1323   2.390       .  S
O1318      H1326   0.965       .  S
O1320     Zr1866   2.377   1_565  S
O1321     Zr1869   2.373   1_554  S
O1321      H1325   0.967       .  S
O1322     Zr1866   2.369   1_554  S
O1322      H1327   0.967   1_554  S
O1323     Zr1869   2.373   1_564  S
C1340      C1470   1.567       .  S
C1340      C1543   1.568       .  S
C1340      C1603   1.562       .  S
C1340      C1713   1.561       .  S
O1341     Zr1353   2.442       .  S
O1341      C1343   1.289       .  A
O1342      C1343   1.285       .  A
C1343      C1460   1.474       .  S
O1344     Zr1356   2.437   1_565  S
O1344      C1346   1.287       .  A
O1345     Zr1380   2.440       .  S
O1345      C1346   1.290       .  A
C1346      C1433   1.485       .  S
O1347     Zr1356   2.434       .  S
O1347      C1349   1.288       .  A
O1348      C1349   1.286       .  A
C1349      C1553   1.485       .  S
O1350     Zr1353   2.440   1_565  S
O1350      C1352   1.287       .  A
O1351     Zr1380   2.437       .  S
O1351      C1352   1.289       .  A
C1352      C1450   1.476       .  S
Zr1353     O1354   2.436       .  S
Zr1353     O1355   2.436       .  S
Zr1353     O1359   2.368       .  S
Zr1353     O1360   2.373   1_545  S
Zr1353     O1383   2.374   1_545  S
O1354      H1397   0.990       .  S
O1355      H1396   0.990   1_545  S
O1355      H1400   0.990       .  S
Zr1356     O1357   2.438       .  S
Zr1356     O1358   2.435       .  S
Zr1356     O1360   2.368   1_545  S
Zr1356     O1359   2.367       .  S
Zr1356     O1386   2.366   1_545  S
O1357      H1398   0.990   1_545  S
O1357      H1401   0.990       .  S
O1358      H1391   0.990       .  S
O1360     Zr1380   2.389       .  S
O1360      H1387   0.967       .  S
O1361     Zr1373   2.435   1_565  S
O1361      C1363   1.286       .  A
O1362      C1363   1.290       .  A
C1363      C1440   1.475       .  S
O1364     Zr1376   2.437       .  S
O1364      C1366   1.288       .  A
O1365     Zr1379   2.415       .  S
O1365      C1366   1.284       .  A
C1366      C1410   1.470       .  S
O1367     Zr1376   2.434   1_565  S
O1367      C1369   1.287       .  A
O1368      C1369   1.292       .  A
C1369      C1473   1.494       .  S
O1370     Zr1373   2.449       .  S
O1370      C1372   1.290       .  A
O1371     Zr1379   2.411       .  S
O1371      C1372   1.283       .  A
C1372      C1423   1.472       .  S
Zr1373     O1374   2.436       .  S
Zr1373     O1375   2.436       .  S
Zr1373     O1381   2.378   1_545  S
Zr1373     O1382   2.368       .  S
Zr1373     O1385   2.368       .  S
O1374      H1394   0.990       .  S
O1374      H1399   0.990   1_545  S
O1375      H1395   0.990   1_545  S
Zr1376     O1377   2.437       .  S
Zr1376     O1378   2.435       .  S
Zr1376     O1382   2.370       .  S
Zr1376     O1381   2.368   1_545  S
Zr1376     O1384   2.367       .  S
O1377      H1393   0.990   1_545  S
O1378      H1392   0.990   1_545  S
O1378      H1402   0.990       .  S
Zr1379     O1382   2.382       .  S
Zr1379     O1384   2.383       .  S
Zr1379     O1385   2.387       .  S
Zr1380     O1383   2.390       .  S
Zr1380     O1386   2.384       .  S
O1381      H1389   0.966       .  S
O1384      H1388   0.966       .  S
O1385      H1390   0.966       .  S
C1403      C1453   1.566       .  S
C1403      C1533   1.562       .  S
C1403      C1590   1.564       .  S
C1403      C1693   1.566       .  S
C1404      C1420   1.557       .  S
C1404      C1490   1.560       .  S
C1404      C1570   1.548       .  S
C1404      C1723   1.556       .  S
C1405      C1463   1.554       .  S
C1405      C1483   1.556       .  S
C1405      C1630   1.557       .  S
C1405      C1673   1.554       .  S
C1406      C1443   1.566       .  S
C1406      C1500   1.565       .  S
C1406      C1583   1.570       .  S
C1406      C1683   1.561       .  S
C1407      C1413   1.555       .  S
C1407      C1520   1.560       .  S
C1407      C1623   1.561       .  S
C1407      C1663   1.560       .  S
C1408      C1430   1.569       .  S
C1408      C1513   1.567       .  S
C1408      C1613   1.568       .  S
C1408      C1653   1.576       .  S
C1409      C1410   1.395       .  A
C1409      C1414   1.390       .  A
C1409      H1416   1.084       .  S
C1410      C1411   1.405       .  A
C1411      C1412   1.402       .  A
C1411      F1418   1.358       .  S
C1412      C1413   1.412       .  A
C1412      H1417   1.079       .  S
C1413      C1414   1.421       .  A
C1414      F1415   1.357       .  S
C1419      C1420   1.413       .  A
C1419      C1424   1.401       .  A
C1419      H1426   1.079       .  S
C1420      C1421   1.420       .  A
C1421      C1422   1.390       .  A
C1421      F1428   1.357       .  S
C1422      C1423   1.396       .  A
C1422      H1427   1.084       .  S
C1423      C1424   1.406       .  A
C1424      F1425   1.358       .  S
C1429      C1430   1.416       .  A
C1429      C1434   1.400       .  A
C1429      H1436   1.076       .  S
C1430      C1431   1.424       .  A
C1431      C1432   1.399       .  A
C1431      F1438   1.358       .  S
C1432      C1433   1.402       .  A
C1432      H1437   1.083       .  S
C1433      C1434   1.402       .  A
C1434      F1435   1.355       .  S
C1439      C1440   1.396       .  A
C1439      C1444   1.399       .  A
C1439      H1446   1.084       .  S
C1440      C1441   1.402       .  A
C1441      C1442   1.398       .  A
C1441      F1448   1.357       .  S
C1442      C1443   1.418       .  A
C1442      H1447   1.083       .  S
C1443      C1444   1.427       .  A
C1444      F1445   1.354       .  S
C1449      C1450   1.400       .  A
C1449      C1454   1.399       .  A
C1449      H1456   1.083       .  S
C1450      C1451   1.399       .  A
C1451      C1452   1.397       .  A
C1451      F1458   1.355       .  S
C1452      C1453   1.418       .  A
C1452      H1457   1.077       .  S
C1453      C1454   1.422       .  A
C1454      F1455   1.358       .  S
C1459      C1460   1.397       .  A
C1459      C1464   1.390       .  A
C1459      H1466   1.084       .  S
C1460      C1461   1.405       .  A
C1461      C1462   1.402       .  A
C1461      F1468   1.357       .  S
C1462      C1463   1.413       .  A
C1462      H1467   1.080       .  S
C1463      C1464   1.420       .  A
C1464      F1465   1.358       .  S
C1469      C1470   1.415       .  A
C1469      C1474   1.395       .  A
C1469      H1476   1.081       .  S
C1470      C1471   1.421       .  A
C1471      C1472   1.408       .  A
C1471      F1478   1.354       .  S
C1472      C1473   1.404       .  A
C1472      H1477   1.083       .  S
C1473      C1474   1.408       .  A
C1474      F1475   1.358       .  S
C1479      C1480   1.405       .  A
C1479      C1484   1.405       .  A
C1479      H1486   1.083       .  S
C1480      C1481   1.406       .  A
C1481      C1482   1.386       .  A
C1481      F1488   1.358       .  S
C1482      C1483   1.413       .  A
C1482      H1487   1.081       .  S
C1483      C1484   1.418       .  A
C1484      F1485   1.356       .  S
C1489      C1490   1.415       .  A
C1489      C1494   1.386       .  A
C1489      H1496   1.079       .  S
C1490      C1491   1.418       .  A
C1491      C1492   1.406       .  A
C1491      F1498   1.355       .  S
C1492      C1493   1.407       .  A
C1492      H1497   1.083       .  S
C1493      C1494   1.406       .  A
C1494      F1495   1.358       .  S
C1499      C1500   1.420       .  A
C1499      C1504   1.399       .  A
C1499      H1506   1.077       .  S
C1500      C1501   1.420       .  A
C1501      C1502   1.395       .  A
C1501      F1508   1.358       .  S
C1502      C1503   1.400       .  A
C1502      H1507   1.084       .  S
C1503      C1504   1.399       .  A
C1504      F1505   1.357       .  S
C1509      C1510   1.401       .  A
C1509      C1514   1.398       .  A
C1509      H1516   1.083       .  S
C1510      C1511   1.401       .  A
C1511      C1512   1.397       .  A
C1511      F1518   1.356       .  S
C1512      C1513   1.419       .  A
C1512      H1517   1.076       .  S
C1513      C1514   1.421       .  A
C1514      F1515   1.358       .  S
C1519      C1520   1.415       .  A
C1519      C1524   1.388       .  A
C1519      H1526   1.081       .  S
C1520      C1521   1.417       .  A
C1521      C1522   1.409       .  A
C1521      F1528   1.357       .  S
C1522      C1523   1.409       .  A
C1522      H1527   1.083       .  S
C1523      C1524   1.405       .  A
C1524      F1525   1.358       .  S
C1529      C1530   1.402       .  A
C1529      C1534   1.399       .  A
C1529      H1536   1.084       .  S
C1530      C1531   1.396       .  A
C1531      C1532   1.395       .  A
C1531      F1538   1.351       .  S
C1532      C1533   1.418       .  A
C1532      H1537   1.076       .  S
C1533      C1534   1.421       .  A
C1534      F1535   1.358       .  S
C1539      C1540   1.401       .  A
C1539      C1544   1.398       .  A
C1539      H1546   1.084       .  S
C1540      C1541   1.403       .  A
C1541      C1542   1.404       .  A
C1541      F1548   1.355       .  S
C1542      C1543   1.417       .  A
C1542      H1547   1.079       .  S
C1543      C1544   1.419       .  A
C1544      F1545   1.357       .  S
C1549      C1550   1.415       .  A
C1549      C1554   1.406       .  A
C1549      H1556   1.083       .  S
C1550      C1551   1.421       .  A
C1551      C1552   1.387       .  A
C1551      F1558   1.357       .  S
C1552      C1553   1.400       .  A
C1552      H1557   1.084       .  S
C1553      C1554   1.408       .  A
C1554      F1555   1.357       .  S
C1559      C1560   1.413       .  A
C1559      C1564   1.402       .  A
C1559      H1566   1.080       .  S
C1560      C1561   1.420       .  A
C1561      C1562   1.393       .  A
C1561      F1568   1.357       .  S
C1562      C1563   1.397       .  A
C1562      H1567   1.084       .  S
C1563      C1564   1.406       .  A
C1564      F1565   1.358       .  S
C1569      C1570   1.417       .  A
C1569      C1574   1.387       .  A
C1569      H1576   1.083       .  S
C1570      C1571   1.417       .  A
C1571      C1572   1.402       .  A
C1571      F1578   1.354       .  S
C1572      C1573   1.402       .  A
C1572      H1577   1.084       .  S
C1573      C1574   1.396       .  A
C1574      F1575   1.358       .  S
C1579      C1580   1.396       .  A
C1579      C1584   1.398       .  A
C1579      H1586   1.083       .  S
C1580      C1581   1.401       .  A
C1581      C1582   1.398       .  A
C1581      F1588   1.358       .  S
C1582      C1583   1.419       .  A
C1582      H1587   1.083       .  S
C1583      C1584   1.427       .  A
C1584      F1585   1.353       .  S
C1589      C1590   1.419       .  A
C1589      C1594   1.397       .  A
C1589      H1596   1.077       .  S
C1590      C1591   1.421       .  A
C1591      C1592   1.394       .  A
C1591      F1598   1.358       .  S
C1592      C1593   1.399       .  A
C1592      H1597   1.084       .  S
C1593      C1594   1.399       .  A
C1594      F1595   1.357       .  S
C1599      C1600   1.400       .  A
C1599      C1604   1.389       .  A
C1599      H1606   1.084       .  S
C1600      C1601   1.408       .  A
C1601      C1602   1.408       .  A
C1601      F1608   1.357       .  S
C1602      C1603   1.417       .  A
C1602      H1607   1.083       .  S
C1603      C1604   1.421       .  A
C1604      F1605   1.356       .  S
C1609      C1610   1.402       .  A
C1609      C1614   1.395       .  A
C1609      H1616   1.084       .  S
C1610      C1611   1.399       .  A
C1611      C1612   1.399       .  A
C1611      F1618   1.358       .  S
C1612      C1613   1.422       .  A
C1612      H1617   1.076       .  S
C1613      C1614   1.419       .  A
C1614      F1615   1.358       .  S
C1619      C1620   1.407       .  A
C1619      C1624   1.408       .  A
C1619      H1626   1.083       .  S
C1620      C1621   1.405       .  A
C1621      C1622   1.387       .  A
C1621      F1628   1.358       .  S
C1622      C1623   1.414       .  A
C1622      H1627   1.081       .  S
C1623      C1624   1.419       .  A
C1624      F1625   1.357       .  S
C1629      C1630   1.414       .  A
C1629      C1634   1.386       .  A
C1629      H1636   1.081       .  S
C1630      C1631   1.418       .  A
C1631      C1632   1.406       .  A
C1631      F1638   1.356       .  S
C1632      C1633   1.406       .  A
C1632      H1637   1.083       .  S
C1633      C1634   1.406       .  A
C1634      F1635   1.358       .  S
C1639      C1640   1.406       .  A
C1639      C1644   1.407       .  A
C1639      H1646   1.083       .  S
C1640      C1641   1.406       .  A
C1641      C1642   1.393       .  A
C1641      F1648   1.358       .  S
C1642      C1643   1.416       .  A
C1642      H1647   1.081       .  S
C1643      C1644   1.419       .  A
C1644      F1645   1.355       .  S
C1649      C1650   1.403       .  A
C1649      C1654   1.403       .  A
C1649      H1656   1.083       .  S
C1650      C1651   1.399       .  A
C1651      C1652   1.400       .  A
C1651      F1658   1.358       .  S
C1652      C1653   1.422       .  A
C1652      H1657   1.076       .  S
C1653      C1654   1.422       .  A
C1654      F1655   1.358       .  S
C1659      C1660   1.404       .  A
C1659      C1664   1.404       .  A
C1659      H1666   1.083       .  S
C1660      C1661   1.397       .  A
C1661      C1662   1.392       .  A
C1661      F1668   1.358       .  S
C1662      C1663   1.419       .  A
C1662      H1667   1.083       .  S
C1663      C1664   1.418       .  A
C1664      F1665   1.354       .  S
C1669      C1670   1.394       .  A
C1669      C1674   1.388       .  A
C1669      H1676   1.084       .  S
C1670      C1671   1.405       .  A
C1671      C1672   1.402       .  A
C1671      F1678   1.358       .  S
C1672      C1673   1.413       .  A
C1672      H1677   1.080       .  S
C1673      C1674   1.420       .  A
C1674      F1675   1.357       .  S
C1679      C1680   1.401       .  A
C1679      C1684   1.397       .  A
C1679      H1686   1.084       .  S
C1680      C1681   1.397       .  A
C1681      C1682   1.397       .  A
C1681      F1688   1.356       .  S
C1682      C1683   1.420       .  A
C1682      H1687   1.077       .  S
C1683      C1684   1.419       .  A
C1684      F1685   1.358       .  S
C1689      C1690   1.395       .  A
C1689      C1694   1.396       .  A
C1689      H1696   1.082       .  S
C1690      C1691   1.400       .  A
C1691      C1692   1.398       .  A
C1691      F1698   1.358       .  S
C1692      C1693   1.419       .  A
C1692      H1697   1.083       .  S
C1693      C1694   1.426       .  A
C1694      F1695   1.353       .  S
C1699      C1700   1.415       .  A
C1699      C1704   1.390       .  A
C1699      H1706   1.083       .  S
C1700      C1701   1.423       .  A
C1701      C1702   1.408       .  A
C1701      F1708   1.355       .  S
C1702      C1703   1.404       .  A
C1702      H1707   1.083       .  S
C1703      C1704   1.397       .  A
C1704      F1705   1.358       .  S
C1709      C1710   1.397       .  A
C1709      C1714   1.394       .  A
C1709      H1716   1.084       .  S
C1710      C1711   1.407       .  A
C1711      C1712   1.408       .  A
C1711      F1718   1.358       .  S
C1712      C1713   1.416       .  A
C1712      H1717   1.080       .  S
C1713      C1714   1.420       .  A
C1714      F1715   1.356       .  S
C1719      C1720   1.400       .  A
C1719      C1724   1.384       .  A
C1719      H1726   1.084       .  S
C1720      C1721   1.406       .  A
C1721      C1722   1.403       .  A
C1721      F1728   1.356       .  S
C1722      C1723   1.414       .  A
C1722      H1727   1.083       .  S
C1723      C1724   1.423       .  A
C1724      F1725   1.357       .  S
O1729     Zr1741   2.433       .  S
O1729      C1731   1.288       .  A
O1730     Zr1767   2.434       .  S
O1730      C1731   1.288       .  A
C1731      C2236   1.484       .  S
O1732     Zr1744   2.422       .  S
O1732      C1734   1.285       .  A
O1733     Zr1768   2.439       .  S
O1733      C1734   1.289       .  A
C1734      C2256   1.469       .  S
O1735     Zr1744   2.432       .  S
O1735      C1737   1.288       .  A
O1736     Zr1767   2.434       .  S
O1736      C1737   1.287       .  A
C1737      C2296   1.487       .  S
O1738     Zr1741   2.444       .  S
O1738      C1740   1.290       .  A
O1739     Zr1768   2.431       .  S
O1739      C1740   1.287       .  A
C1740      C2286   1.488       .  S
Zr1741     O1742   2.434       .  S
Zr1741     O1743   2.435       .  S
Zr1741     O1747   2.374       .  S
Zr1741     O1748   2.362       .  S
Zr1741     O1771   2.366       .  S
Zr1741     O1773   2.365       .  S
O1742      H1785   0.990       .  S
O1743      H1784   0.990       .  S
O1743      H1788   0.990       .  S
Zr1744     O1745   2.435       .  S
Zr1744     O1746   2.436       .  S
Zr1744     O1748   2.367       .  S
Zr1744     O1747   2.362       .  S
Zr1744     O1772   2.365       .  S
Zr1744     O1774   2.374       .  S
O1745      H1786   0.990       .  S
O1745      H1789   0.990       .  S
O1746      H1779   0.990       .  S
O1747     Zr1767   2.383       .  S
O1748     Zr1768   2.385       .  S
O1748      H1775   0.965       .  S
O1749     Zr1761   2.448       .  S
O1749      C1751   1.290       .  A
O1750     Zr1768   2.434       .  S
O1750      C1751   1.289       .  A
C1751      C2226   1.479       .  S
O1752     Zr1764   2.430       .  S
O1752      C1754   1.287       .  A
O1753     Zr1767   2.427       .  S
O1753      C1754   1.286       .  A
C1754      C2246   1.470       .  S
O1755     Zr1764   2.437       .  S
O1755      C1757   1.287       .  A
O1756     Zr1768   2.437       .  S
O1756      C1757   1.289       .  A
C1757      C2266   1.474       .  S
O1758     Zr1761   2.439       .  S
O1758      C1760   1.288       .  A
O1759     Zr1767   2.418       .  S
O1759      C1760   1.285       .  A
C1760      C2279   1.466       .  S
Zr1761     O1762   2.436       .  S
Zr1761     O1763   2.435       .  S
Zr1761     O1769   2.373       .  S
Zr1761     O1770   2.374       .  S
Zr1761     O1773   2.369       .  S
Zr1761     O1771   2.366       .  S
O1762      H1782   0.990       .  S
O1762      H1787   0.990       .  S
O1763      H1783   0.990       .  S
Zr1764     O1765   2.434       .  S
Zr1764     O1766   2.436       .  S
Zr1764     O1770   2.372       .  S
Zr1764     O1769   2.362       .  S
Zr1764     O1774   2.371       .  S
Zr1764     O1772   2.369       .  S
O1765      H1781   0.990       .  S
O1766      H1780   0.990       .  S
O1766      H1790   0.990       .  S
Zr1767     O1770   2.390       .  S
Zr1767     O1772   2.381       .  S
Zr1767     O1773   2.391       .  S
Zr1768     O1769   2.387       .  S
Zr1768     O1771   2.386       .  S
Zr1768     O1774   2.381       .  S
O1769      H1777   0.966       .  S
O1772      H1776   0.965       .  S
O1773      H1778   0.965       .  S
O1791     Zr1803   2.437       .  S
O1791      C1793   1.288       .  A
O1792      C1793   1.288       .  A
C1793      C2216   1.488       .  S
O1794     Zr1806   2.451       .  S
O1794      C1796   1.291       .  A
O1795      C1796   1.287       .  A
C1796      C2176   1.480       .  S
O1797     Zr1806   2.442       .  S
O1797      C1799   1.289       .  A
O1798      C1799   1.285       .  A
C1799      C2196   1.471       .  S
O1800     Zr1803   2.424       .  S
O1800      C1802   1.285       .  A
O1801      C1802   1.290       .  A
C1802      C2186   1.470       .  S
Zr1803     O1804   2.434       .  S
Zr1803     O1805   2.438       .  S
Zr1803     O1809   2.364       .  S
Zr1803     O1810   2.368       .  S
O1804      H1847   0.990       .  S
O1805      H1846   0.990       .  S
O1805      H1850   0.990       .  S
Zr1806     O1807   2.435       .  S
Zr1806     O1808   2.435       .  S
O1807      H1848   0.990       .  S
O1807      H1851   0.990       .  S
O1808      H1841   0.990       .  S
O1810      H1837   0.967       .  S
O1811     Zr1823   2.426       .  S
O1811      C1813   1.285       .  A
O1812     Zr1830   2.446       .  S
O1812      C1813   1.291       .  A
C1813      C2169   1.475       .  S
O1814     Zr1826   2.445       .  S
O1814      C1816   1.290       .  A
O1815      C1816   1.285       .  A
C1816      C2149   1.474       .  S
O1817     Zr1826   2.440       .  S
O1817      C1819   1.288       .  A
O1818      C1819   1.290       .  A
C1819      C2156   1.476       .  S
O1820     Zr1823   2.434       .  S
O1820      C1822   1.287       .  A
O1821     Zr1829   2.422       .  S
O1821      C1822   1.285       .  A
C1822      C2209   1.480       .  S
Zr1823     O1824   2.436       .  S
Zr1823     O1825   2.434       .  S
Zr1823     O1831   2.373       .  S
Zr1823     O1832   2.366       .  S
Zr1823     O1835   2.367       .  S
Zr1823     O1833   2.367       .  S
O1824      H1844   0.990       .  S
O1824      H1849   0.990       .  S
O1825      H1845   0.990       .  S
Zr1826     O1827   2.434       .  S
Zr1826     O1828   2.436       .  S
Zr1826     O1836   2.375       .  S
Zr1826     O1834   2.362       .  S
O1827      H1843   0.990       .  S
O1828      H1842   0.990       .  S
O1828      H1852   0.990       .  S
Zr1829     O1832   2.392       .  S
Zr1829     O1835   2.386       .  S
Zr1830     O1831   2.392       .  S
Zr1830     O1833   2.390       .  S
O1831      H1839   0.966       .  S
O1834      H1838   0.966       .  S
O1835      H1840   0.967       .  S
C1853      C2126   1.552       .  S
C1853      C2136   1.547       .  S
C1853      C2219   1.560       .  S
C1853      C2276   1.556       .  S
O1854     Zr1866   2.434       .  S
O1854      C1856   1.287       .  A
O1855      C1856   1.283       .  A
C1856      C2139   1.467       .  S
O1857     Zr1869   2.451   1_565  S
O1857      C1859   1.291       .  A
O1858      C1859   1.288       .  A
C1859      C2116   1.487       .  S
O1860     Zr1869   2.447       .  S
O1860      C1862   1.290       .  A
O1861      C1862   1.283       .  A
C1862      C2099   1.470       .  S
O1863     Zr1866   2.440   1_565  S
O1863      C1865   1.288       .  A
O1864      C1865   1.289       .  A
C1865      C2086   1.477       .  S
Zr1866     O1867   2.434       .  S
Zr1866     O1868   2.437       .  S
Zr1866     O1872   2.367       .  S
Zr1866     O1873   2.363   1_545  S
O1867      H1910   0.990       .  S
O1868      H1909   0.990       .  S
O1868      H1913   0.990       .  S
Zr1869     O1870   2.436       .  S
Zr1869     O1871   2.434       .  S
Zr1869     O1873   2.371   1_545  S
Zr1869     O1872   2.368       .  S
O1870      H1911   0.990   1_545  S
O1870      H1914   0.990       .  S
O1871      H1904   0.990   1_545  S
O1873      H1900   0.965       .  S
O1874     Zr1886   2.427   1_565  S
O1874      C1876   1.285       .  A
O1875     Zr1893   2.436       .  S
O1875      C1876   1.288       .  A
C1876      C2106   1.466       .  S
O1877     Zr1889   2.429       .  S
O1877      C1879   1.286       .  A
O1878     Zr1892   2.432       .  S
O1878      C1879   1.287       .  A
C1879      C2069   1.488       .  S
O1880     Zr1889   2.432   1_565  S
O1880      C1882   1.286       .  A
O1881     Zr1893   2.449       .  S
O1881      C1882   1.291       .  A
C1882      C2079   1.478       .  S
O1883     Zr1886   2.412       .  S
O1883      C1885   1.283       .  A
O1884     Zr1892   2.436       .  S
O1884      C1885   1.288       .  A
C1885      C2056   1.481       .  S
Zr1886     O1887   2.436       .  S
Zr1886     O1888   2.436       .  S
Zr1886     O1894   2.366   1_545  S
Zr1886     O1895   2.371       .  S
Zr1886     O1898   2.371       .  S
Zr1886     O1896   2.368   1_545  S
O1887      H1907   0.990   1_545  S
O1887      H1912   0.990   1_545  S
O1888      H1908   0.990       .  S
Zr1889     O1890   2.434       .  S
Zr1889     O1891   2.434       .  S
Zr1889     O1895   2.364       .  S
Zr1889     O1894   2.361   1_545  S
Zr1889     O1899   2.376   1_545  S
Zr1889     O1897   2.364       .  S
O1890      H1906   0.990       .  S
O1891      H1905   0.990   1_545  S
O1891      H1915   0.990       .  S
Zr1892     O1895   2.382       .  S
Zr1892     O1897   2.387       .  S
Zr1892     O1898   2.391       .  S
Zr1893     O1894   2.384       .  S
Zr1893     O1896   2.393       .  S
Zr1893     O1899   2.383       .  S
O1894      H1902   0.965       .  S
O1897      H1901   0.967       .  S
O1898      H1903   0.967       .  S
C1916      C2046   1.561       .  S
C1916      C2119   1.563       .  S
C1916      C2179   1.561       .  S
C1916      C2289   1.559       .  S
O1917     Zr1929   2.447       .  S
O1917      C1919   1.290       .  A
O1918      C1919   1.284       .  A
C1919      C2036   1.472       .  S
O1920     Zr1932   2.433   1_565  S
O1920      C1922   1.287       .  A
O1921     Zr1956   2.439       .  S
O1921      C1922   1.289       .  A
C1922      C2009   1.480       .  S
O1923     Zr1932   2.430       .  S
O1923      C1925   1.288       .  A
O1924      C1925   1.285       .  A
C1925      C2129   1.482       .  S
O1926     Zr1929   2.442   1_565  S
O1926      C1928   1.288       .  A
O1927     Zr1956   2.434       .  S
O1927      C1928   1.288       .  A
C1928      C2026   1.472       .  S
Zr1929     O1930   2.436       .  S
Zr1929     O1931   2.436       .  S
Zr1929     O1935   2.369       .  S
Zr1929     O1936   2.372   1_545  S
Zr1929     O1959   2.375   1_545  S
O1930      H1973   0.990   1_545  S
O1931      H1972   0.990       .  S
O1931      H1976   0.990       .  S
Zr1932     O1933   2.436       .  S
Zr1932     O1934   2.433       .  S
Zr1932     O1936   2.366   1_545  S
Zr1932     O1935   2.368       .  S
Zr1932     O1962   2.370   1_545  S
O1933      H1974   0.990       .  S
O1933      H1977   0.990       .  S
O1934      H1967   0.990       .  S
O1936     Zr1956   2.391       .  S
O1936      H1963   0.966       .  S
O1937     Zr1949   2.434   1_565  S
O1937      C1939   1.287       .  A
O1938      C1939   1.289       .  A
C1939      C2016   1.473       .  S
O1940     Zr1952   2.435       .  S
O1940      C1942   1.289       .  A
O1941     Zr1955   2.413       .  S
O1941      C1942   1.283       .  A
C1942      C1986   1.480       .  S
O1943     Zr1952   2.447   1_565  S
O1943      C1945   1.290       .  A
O1944      C1945   1.287       .  A
C1945      C2049   1.480       .  S
O1946     Zr1949   2.443       .  S
O1946      C1948   1.289       .  A
O1947     Zr1955   2.426       .  S
O1947      C1948   1.286       .  A
C1948      C1999   1.474       .  S
Zr1949     O1950   2.435       .  S
Zr1949     O1951   2.434       .  S
Zr1949     O1957   2.373   1_545  S
Zr1949     O1958   2.373       .  S
Zr1949     O1961   2.367       .  S
O1950      H1970   0.990       .  S
O1950      H1975   0.990       .  S
O1951      H1971   0.990       .  S
Zr1952     O1953   2.435       .  S
Zr1952     O1954   2.436       .  S
Zr1952     O1958   2.374       .  S
Zr1952     O1957   2.365   1_545  S
Zr1952     O1960   2.367       .  S
O1953      H1969   0.990       .  S
O1954      H1968   0.990   1_545  S
O1954      H1978   0.990   1_545  S
Zr1955     O1958   2.388       .  S
Zr1955     O1960   2.389       .  S
Zr1955     O1961   2.385       .  S
Zr1956     O1959   2.389       .  S
Zr1956     O1962   2.384       .  S
O1957      H1965   0.966       .  S
O1960      H1964   0.966       .  S
O1961      H1966   0.966       .  S
C1979      C2029   1.563       .  S
C1979      C2109   1.556       .  S
C1979      C2166   1.564       .  S
C1979      C2269   1.565       .  S
C1980      C1996   1.558       .  S
C1980      C2066   1.559       .  S
C1980      C2146   1.555       .  S
C1980      C2299   1.560       .  S
C1981      C2039   1.555       .  S
C1981      C2059   1.553       .  S
C1981      C2206   1.556       .  S
C1981      C2249   1.551       .  S
C1982      C2019   1.565       .  S
C1982      C2076   1.568       .  S
C1982      C2159   1.569       .  S
C1982      C2259   1.560       .  S
C1983      C1989   1.551       .  S
C1983      C2096   1.552       .  S
C1983      C2199   1.556       .  S
C1983      C2239   1.557       .  S
C1984      C2006   1.562       .  S
C1984      C2089   1.565       .  S
C1984      C2189   1.564       .  S
C1984      C2229   1.567       .  S
C1985      C1986   1.399       .  A
C1985      C1990   1.385       .  A
C1985      H1992   1.083       .  S
C1986      C1987   1.408       .  A
C1987      C1988   1.401       .  A
C1987      F1994   1.358       .  S
C1988      C1989   1.415       .  A
C1988      H1993   1.082       .  S
C1989      C1990   1.420       .  A
C1990      F1991   1.356       .  S
C1995      C1996   1.414       .  A
C1995      C2000   1.403       .  A
C1995      H2002   1.080       .  S
C1996      C1997   1.420       .  A
C1997      C1998   1.392       .  A
C1997      F2004   1.357       .  S
C1998      C1999   1.397       .  A
C1998      H2003   1.084       .  S
C1999      C2000   1.404       .  A
C2000      F2001   1.357       .  S
C2005      C2006   1.416       .  A
C2005      C2010   1.398       .  A
C2005      H2012   1.077       .  S
C2006      C2007   1.421       .  A
C2007      C2008   1.397       .  A
C2007      F2014   1.358       .  S
C2008      C2009   1.400       .  A
C2008      H2013   1.083       .  S
C2009      C2010   1.401       .  A
C2010      F2011   1.354       .  S
C2015      C2016   1.396       .  A
C2015      C2020   1.399       .  A
C2015      H2022   1.084       .  S
C2016      C2017   1.401       .  A
C2017      C2018   1.398       .  A
C2017      F2024   1.358       .  S
C2018      C2019   1.418       .  A
C2018      H2023   1.083       .  S
C2019      C2020   1.428       .  A
C2020      F2021   1.353       .  S
C2025      C2026   1.397       .  A
C2025      C2030   1.398       .  A
C2025      H2032   1.083       .  S
C2026      C2027   1.398       .  A
C2027      C2028   1.397       .  A
C2027      F2034   1.354       .  S
C2028      C2029   1.417       .  A
C2028      H2033   1.078       .  S
C2029      C2030   1.422       .  A
C2030      F2031   1.358       .  S
C2035      C2036   1.396       .  A
C2035      C2040   1.391       .  A
C2035      H2042   1.084       .  S
C2036      C2037   1.405       .  A
C2037      C2038   1.402       .  A
C2037      F2044   1.357       .  S
C2038      C2039   1.413       .  A
C2038      H2043   1.080       .  S
C2039      C2040   1.421       .  A
C2040      F2041   1.357       .  S
C2045      C2046   1.416       .  A
C2045      C2050   1.393       .  A
C2045      H2052   1.083       .  S
C2046      C2047   1.421       .  A
C2047      C2048   1.407       .  A
C2047      F2054   1.355       .  S
C2048      C2049   1.404       .  A
C2048      H2053   1.083       .  S
C2049      C2050   1.401       .  A
C2050      F2051   1.358       .  S
C2055      C2056   1.404       .  A
C2055      C2060   1.403       .  A
C2055      H2062   1.083       .  S
C2056      C2057   1.406       .  A
C2057      C2058   1.385       .  A
C2057      F2064   1.359       .  S
C2058      C2059   1.413       .  A
C2058      H2063   1.081       .  S
C2059      C2060   1.418       .  A
C2060      F2061   1.356       .  S
C2065      C2066   1.414       .  A
C2065      C2070   1.386       .  A
C2065      H2072   1.080       .  S
C2066      C2067   1.418       .  A
C2067      C2068   1.408       .  A
C2067      F2074   1.356       .  S
C2068      C2069   1.407       .  A
C2068      H2073   1.083       .  S
C2069      C2070   1.406       .  A
C2070      F2071   1.358       .  S
C2075      C2076   1.419       .  A
C2075      C2080   1.400       .  A
C2075      H2082   1.078       .  S
C2076      C2077   1.421       .  A
C2077      C2078   1.399       .  A
C2077      F2084   1.358       .  S
C2078      C2079   1.400       .  A
C2078      H2083   1.083       .  S
C2079      C2080   1.399       .  A
C2080      F2081   1.355       .  S
C2085      C2086   1.400       .  A
C2085      C2090   1.400       .  A
C2085      H2092   1.083       .  S
C2086      C2087   1.398       .  A
C2087      C2088   1.394       .  A
C2087      F2094   1.351       .  S
C2088      C2089   1.417       .  A
C2088      H2093   1.076       .  S
C2089      C2090   1.422       .  A
C2090      F2091   1.357       .  S
C2095      C2096   1.416       .  A
C2095      C2100   1.391       .  A
C2095      H2102   1.083       .  S
C2096      C2097   1.418       .  A
C2097      C2098   1.402       .  A
C2097      F2104   1.355       .  S
C2098      C2099   1.403       .  A
C2098      H2103   1.084       .  S
C2099      C2100   1.398       .  A
C2100      F2101   1.358       .  S
C2105      C2106   1.399       .  A
C2105      C2110   1.396       .  A
C2105      H2112   1.084       .  S
C2106      C2107   1.396       .  A
C2107      C2108   1.395       .  A
C2107      F2114   1.355       .  S
C2108      C2109   1.418       .  A
C2108      H2113   1.077       .  S
C2109      C2110   1.421       .  A
C2110      F2111   1.358       .  S
C2115      C2116   1.401       .  A
C2115      C2120   1.395       .  A
C2115      H2122   1.084       .  S
C2116      C2117   1.407       .  A
C2117      C2118   1.404       .  A
C2117      F2124   1.357       .  S
C2118      C2119   1.414       .  A
C2118      H2123   1.081       .  S
C2119      C2120   1.423       .  A
C2120      F2121   1.357       .  S
C2125      C2126   1.414       .  A
C2125      C2130   1.405       .  A
C2125      H2132   1.083       .  S
C2126      C2127   1.420       .  A
C2127      C2128   1.386       .  A
C2127      F2134   1.357       .  S
C2128      C2129   1.400       .  A
C2128      H2133   1.084       .  S
C2129      C2130   1.408       .  A
C2130      F2131   1.357       .  S
C2135      C2136   1.412       .  A
C2135      C2140   1.398       .  A
C2135      H2142   1.080       .  S
C2136      C2137   1.420       .  A
C2137      C2138   1.388       .  A
C2137      F2144   1.357       .  S
C2138      C2139   1.397       .  A
C2138      H2143   1.084       .  S
C2139      C2140   1.404       .  A
C2140      F2141   1.357       .  S
C2145      C2146   1.417       .  A
C2145      C2150   1.392       .  A
C2145      H2152   1.083       .  S
C2146      C2147   1.419       .  A
C2147      C2148   1.403       .  A
C2147      F2154   1.355       .  S
C2148      C2149   1.403       .  A
C2148      H2153   1.083       .  S
C2149      C2150   1.399       .  A
C2150      F2151   1.358       .  S
C2155      C2156   1.396       .  A
C2155      C2160   1.399       .  A
C2155      H2162   1.083       .  S
C2156      C2157   1.401       .  A
C2157      C2158   1.400       .  A
C2157      F2164   1.358       .  S
C2158      C2159   1.419       .  A
C2158      H2163   1.083       .  S
C2159      C2160   1.426       .  A
C2160      F2161   1.354       .  S
C2165      C2166   1.419       .  A
C2165      C2170   1.399       .  A
C2165      H2172   1.078       .  S
C2166      C2167   1.419       .  A
C2167      C2168   1.397       .  A
C2167      F2174   1.357       .  S
C2168      C2169   1.400       .  A
C2168      H2173   1.084       .  S
C2169      C2170   1.399       .  A
C2170      F2171   1.357       .  S
C2175      C2176   1.398       .  A
C2175      C2180   1.392       .  A
C2175      H2182   1.084       .  S
C2176      C2177   1.406       .  A
C2177      C2178   1.407       .  A
C2177      F2184   1.357       .  S
C2178      C2179   1.416       .  A
C2178      H2183   1.080       .  S
C2179      C2180   1.419       .  A
C2180      F2181   1.356       .  S
C2185      C2186   1.400       .  A
C2185      C2190   1.396       .  A
C2185      H2192   1.084       .  S
C2186      C2187   1.398       .  A
C2187      C2188   1.397       .  A
C2187      F2194   1.358       .  S
C2188      C2189   1.420       .  A
C2188      H2193   1.077       .  S
C2189      C2190   1.420       .  A
C2190      F2191   1.358       .  S
C2195      C2196   1.402       .  A
C2195      C2200   1.403       .  A
C2195      H2202   1.084       .  S
C2196      C2197   1.399       .  A
C2197      C2198   1.389       .  A
C2197      F2204   1.358       .  S
C2198      C2199   1.414       .  A
C2198      H2203   1.083       .  S
C2199      C2200   1.421       .  A
C2200      F2201   1.355       .  S
C2205      C2206   1.415       .  A
C2205      C2210   1.386       .  A
C2205      H2212   1.081       .  S
C2206      C2207   1.418       .  A
C2207      C2208   1.405       .  A
C2207      F2214   1.356       .  S
C2208      C2209   1.405       .  A
C2208      H2213   1.083       .  S
C2209      C2210   1.402       .  A
C2210      F2211   1.358       .  S
C2215      C2216   1.406       .  A
C2215      C2220   1.407       .  A
C2215      H2222   1.083       .  S
C2216      C2217   1.405       .  A
C2217      C2218   1.389       .  A
C2217      F2224   1.358       .  S
C2218      C2219   1.413       .  A
C2218      H2223   1.081       .  S
C2219      C2220   1.419       .  A
C2220      F2221   1.356       .  S
C2225      C2226   1.400       .  A
C2225      C2230   1.398       .  A
C2225      H2232   1.083       .  S
C2226      C2227   1.402       .  A
C2227      C2228   1.401       .  A
C2227      F2234   1.358       .  S
C2228      C2229   1.420       .  A
C2228      H2233   1.077       .  S
C2229      C2230   1.421       .  A
C2230      F2231   1.357       .  S
C2235      C2236   1.405       .  A
C2235      C2240   1.406       .  A
C2235      H2242   1.083       .  S
C2236      C2237   1.404       .  A
C2237      C2238   1.388       .  A
C2237      F2244   1.358       .  S
C2238      C2239   1.414       .  A
C2238      H2243   1.081       .  S
C2239      C2240   1.418       .  A
C2240      F2241   1.356       .  S
C2245      C2246   1.396       .  A
C2245      C2250   1.387       .  A
C2245      H2252   1.084       .  S
C2246      C2247   1.405       .  A
C2247      C2248   1.403       .  A
C2247      F2254   1.357       .  S
C2248      C2249   1.414       .  A
C2248      H2253   1.080       .  S
C2249      C2250   1.418       .  A
C2250      F2251   1.358       .  S
C2255      C2256   1.399       .  A
C2255      C2260   1.395       .  A
C2255      H2262   1.084       .  S
C2256      C2257   1.397       .  A
C2257      C2258   1.398       .  A
C2257      F2264   1.356       .  S
C2258      C2259   1.419       .  A
C2258      H2263   1.077       .  S
C2259      C2260   1.420       .  A
C2260      F2261   1.357       .  S
C2265      C2266   1.396       .  A
C2265      C2270   1.400       .  A
C2265      H2272   1.081       .  S
C2266      C2267   1.400       .  A
C2267      C2268   1.398       .  A
C2267      F2274   1.357       .  S
C2268      C2269   1.416       .  A
C2268      H2273   1.083       .  S
C2269      C2270   1.427       .  A
C2270      F2271   1.354       .  S
C2275      C2276   1.416       .  A
C2275      C2280   1.387       .  A
C2275      H2282   1.083       .  S
C2276      C2277   1.421       .  A
C2277      C2278   1.401       .  A
C2277      F2284   1.354       .  S
C2278      C2279   1.400       .  A
C2278      H2283   1.084       .  S
C2279      C2280   1.397       .  A
C2280      F2281   1.358       .  S
C2285      C2286   1.400       .  A
C2285      C2290   1.392       .  A
C2285      H2292   1.084       .  S
C2286      C2287   1.409       .  A
C2287      C2288   1.407       .  A
C2287      F2294   1.357       .  S
C2288      C2289   1.414       .  A
C2288      H2293   1.081       .  S
C2289      C2290   1.422       .  A
C2290      F2291   1.357       .  S
C2295      C2296   1.401       .  A
C2295      C2300   1.388       .  A
C2295      H2302   1.083       .  S
C2296      C2297   1.408       .  A
C2297      C2298   1.406       .  A
C2297      F2304   1.357       .  S
C2298      C2299   1.417       .  A
C2298      H2303   1.083       .  S
C2299      C2300   1.420       .  A
C2300      F2301   1.356       .  S
