geometry optimzed in LAMMPS
_audit_creation_date              2020-11-30 
_audit_creation_method            'lammps2cif' 
_symmetry_space_group_name_H-M    'P1' 
_symmetry_Int_Tables_number       1 
_symmetry_cell_setting            triclinic 
loop_ 
_symmetry_equiv_pos_as_xyz 
  x,y,z 
_cell_length_a                    28.326446452390297 
_cell_length_b                    22.684436624083073 
_cell_length_c                    25.33668470301137 
_cell_angle_alpha                 89.98523436543428 
_cell_angle_beta                  90.00057888385254 
_cell_angle_gamma                 89.9906065832884 
loop_ 
_atom_site_label 
_atom_site_type_symbol 
_atom_site_fract_x 
_atom_site_fract_y 
_atom_site_fract_z 
_atom_site_charge 
C1          C  0.31908418  0.31586461  0.19761245     0.03050
C2          C  0.31370198  0.20898895  0.30975347     0.03050
C3          C  0.23798853  0.18881761  0.19180662     0.03050
C4          C  0.21333119  0.31220170  0.28343289     0.03050
C5          C  0.31374410  0.21062237  0.68796049     0.03050
C6          C  0.23614057  0.19305738  0.80469501     0.03050
C7          C  0.21334515  0.31470710  0.71056882     0.03050
C8          C  0.31777061  0.31962099  0.79839554     0.03050
O9          O  0.44754098  0.39512286  0.88924972    -0.69750
O10         O  0.39034273  0.44366198  0.93594671    -0.48660
C11         C  0.40450789  0.40861853  0.89910775     0.83980
O12         O  0.60291945  0.39356324  0.10695301    -0.54350
O13         O  0.66016902  0.44177198  0.06014872    -0.47380
C14         C  0.64597155  0.40584550  0.09629812     0.75990
O15         O  0.44794966  0.39461477  0.10796629    -0.68910
O16         O  0.39061951  0.44270922  0.06109102    -0.49470
C17         C  0.40489839  0.40755840  0.09785163     0.82000
O18         O  0.60331872  0.39499998  0.88927264    -0.54050
O19         O  0.66041862  0.44317074  0.93633437    -0.47170
C20         C  0.64637699  0.40778139  0.89971873     0.78590
Zr21       Zr  0.52548429  0.41979702  0.92126739     2.54710
O22         O  0.52508752  0.31272901  0.92666853    -0.74620
O23         O  0.52758880  0.42258950  0.82513527    -0.88040
Zr24       Zr  0.52541669  0.41976298  0.07566688     2.64680
O25         O  0.52358327  0.31266035  0.07100951    -0.92990
O26         O  0.52665080  0.42223272  0.17176933    -0.75050
O27         O  0.47811855  0.41766812  0.99847577    -0.78410
O28         O  0.57251070  0.41778207  0.99847492    -2.13120
O29         O  0.60322525  0.61737165  0.88911424    -0.61800
O30         O  0.66037126  0.56950214  0.93641782    -0.46360
C31         C  0.64629067  0.60464474  0.89963611     0.76970
O32         O  0.44784076  0.61910536  0.10721265    -0.54710
O33         O  0.39061625  0.56996844  0.06105070    -0.46680
C34         C  0.40484279  0.60560929  0.09741884     0.78770
O35         O  0.60298928  0.61922716  0.10673536    -0.66100
O36         O  0.66020862  0.57069428  0.06014235    -0.44780
C37         C  0.64601809  0.60670712  0.09619232     0.80160
O38         O  0.44739311  0.61707687  0.88871660    -0.61430
O39         O  0.39026886  0.56898359  0.93593245    -0.48630
C40         C  0.40436817  0.60365485  0.89877997     0.78540
Zr41       Zr  0.52528824  0.59359015  0.92159446     2.77540
O42         O  0.52410944  0.70051778  0.92921617    -0.92180
O43         O  0.52545440  0.59497792  0.82552435    -0.73000
Zr44       Zr  0.52536562  0.59320541  0.07567355     2.70070
O45         O  0.52563806  0.70032626  0.07091897    -0.74250
O46         O  0.52364775  0.58956623  0.17176985    -0.93330
Zr47       Zr  0.43254999  0.50638976  0.99864879     2.21500
Zr48       Zr  0.61820240  0.50635241  0.99864676     2.11130
O49         O  0.57253094  0.59503873  0.99861111    -2.42020
O50         O  0.47782818  0.59537255  0.99865429    -0.74040
O51         O  0.57138028  0.50671760  0.92074217    -0.66240
O52         O  0.47960303  0.50648179  0.07650263    -2.27190
O53         O  0.47973102  0.50659575  0.92072665    -2.23400
O54         O  0.57164301  0.50648471  0.07678353    -0.68000
H55         H  0.59261365  0.38337798  0.99836051     0.84000
H56         H  0.46024357  0.50659314  0.10784500     0.85090
H57         H  0.59269812  0.62937437  0.99865655     0.87310
H58         H  0.46047170  0.50656242  0.88931739     0.84920
H59         H  0.50748350  0.45711468  0.18139229     0.47960
H60         H  0.54992159  0.56295778  0.18164139     0.46930
H61         H  0.50053652  0.70997943  0.04513260     0.46600
H62         H  0.55455517  0.71078860  0.94604174     0.44540
H63         H  0.54144944  0.55786752  0.81533354     0.47670
H64         H  0.50197209  0.44997134  0.81482510     0.42450
H65         H  0.50044166  0.30356822  0.95313643     0.48570
H66         H  0.55261041  0.30174044  0.05157548     0.44990
H67         H  0.52725487  0.71472089  0.89242751     0.49900
H68         H  0.51638216  0.38323326  0.81382786     0.48630
H69         H  0.52953512  0.29962301  0.10771349     0.48760
H70         H  0.53408868  0.62918288  0.18326876     0.49120
C71         C  0.31904733  0.69635338  0.19762376     0.03050
C72         C  0.23843257  0.82387919  0.19208013     0.03050
C73         C  0.21309478  0.70004076  0.28297655     0.03050
C74         C  0.31365190  0.80245815  0.31017462     0.03050
O75         O  0.44665713  0.12549481  0.60333040    -0.69750
O76         O  0.38955279  0.07395351  0.55911126    -0.48660
C77         C  0.40328744  0.11354223  0.59249959     0.83980
O78         O  0.60417757  0.12210130  0.39304431    -0.54350
O79         O  0.66127930  0.07239536  0.43893727    -0.47380
C80         C  0.64757610  0.11029209  0.40394393     0.75990
O81         O  0.44628060  0.12520084  0.39609768    -0.68910
O82         O  0.38928069  0.07387437  0.44068091    -0.49470
C83         C  0.40291054  0.11328763  0.40702443     0.82000
O84         O  0.60444599  0.12255923  0.60612425    -0.54050
O85         O  0.66138179  0.07261475  0.56018227    -0.47170
C86         C  0.64780492  0.11072768  0.59503828     0.78590
Zr87       Zr  0.52553020  0.09187080  0.57791432     2.54710
O88         O  0.52650802  0.19907393  0.57614760    -0.74620
O89         O  0.52546713  0.08366519  0.67380314    -0.88040
Zr90       Zr  0.52524253  0.09207295  0.42189789     2.64680
O91         O  0.52484584  0.19931827  0.42463077    -0.92990
O92         O  0.52497542  0.08516356  0.32595178    -0.75050
O93         O  0.47897118  0.09272012  0.49998959    -0.78410
O94         O  0.57191396  0.09315394  0.49981225    -2.13120
O95         O  0.60454336  0.88885237  0.60629485    -0.61800
O96         O  0.66142331  0.93861435  0.56008723    -0.46360
C97         C  0.64787064  0.90067679  0.59508841     0.76970
O98         O  0.44628901  0.88480471  0.39712342    -0.54710
O99         O  0.38932337  0.93702489  0.44095181    -0.46680
C100        C  0.40293498  0.89712362  0.40778158     0.78770
O101        O  0.60414871  0.88884828  0.39315747    -0.66100
O102        O  0.66119463  0.93877559  0.43895495    -0.44780
C103        C  0.64751840  0.90083099  0.40402679     0.80160
O104        O  0.44659467  0.88516652  0.60291913    -0.61430
O105        O  0.38953495  0.93697845  0.55880948    -0.48630
C106        C  0.40325067  0.89724054  0.59205704     0.78540
Zr107      Zr  0.52548956  0.91866373  0.57771075     2.77540
O108        O  0.52572043  0.81139788  0.57472801    -0.92180
O109        O  0.52370811  0.92522153  0.67361081    -0.73000
Zr110      Zr  0.52522635  0.91871935  0.42204644     2.70070
O111        O  0.52714967  0.81155153  0.42515193    -0.74250
O112        O  0.52228129  0.92600754  0.32622609    -0.93330
Zr113      Zr  0.43156549  0.00553225  0.49991335     2.21500
Zr114      Zr  0.61919318  0.00557061  0.49969403     2.11130
O115        O  0.57202271  0.91784610  0.49977845    -2.42020
O116        O  0.47881034  0.91815770  0.49995331    -0.74040
O117        O  0.57246914  0.00528083  0.57837826    -0.66240
O118        O  0.47827025  0.00538918  0.42112619    -2.27190
O119        O  0.47844156  0.00528725  0.57870088    -2.23400
O120        O  0.57213957  0.00539241  0.42125205    -0.68000
H121        H  0.59173377  0.12779535  0.49983166     0.84000
H122        H  0.45820296  0.00521930  0.39030772     0.85090
H123        H  0.59190949  0.88325629  0.49967247     0.87310
H124        H  0.45844371  0.00513963  0.60957702     0.84920
H125        H  0.49792877  0.05925742  0.31735453     0.47960
H126        H  0.54963089  0.95103943  0.31674571     0.46930
H127        H  0.50748278  0.80120255  0.45610475     0.46600
H128        H  0.55411682  0.80090249  0.55397838     0.44540
H129        H  0.54786966  0.95518725  0.68240631     0.47670
H130        H  0.49608079  0.06216304  0.68254464     0.42450
H131        H  0.50759546  0.20960179  0.54465934     0.48570
H132        H  0.55283207  0.21005715  0.44596329     0.44990
H133        H  0.53331579  0.79914142  0.61126452     0.49900
H134        H  0.51981170  0.12435697  0.68643208     0.48630
H135        H  0.53301560  0.21152032  0.38823581     0.48760
H136        H  0.53090571  0.88613817  0.31358662     0.49120
C137        C  0.73432170  0.31449351  0.80278987     0.03050
C138        C  0.83705597  0.31273953  0.71225523     0.03050
C139        C  0.73809812  0.20586641  0.69181749     0.03050
C140        C  0.81844169  0.19017558  0.80674697     0.03050
C141        C  0.31732519  0.69226717  0.79823580     0.03050
C142        C  0.31358385  0.80091286  0.68757071     0.03050
C143        C  0.21263061  0.69814315  0.71096650     0.03050
C144        C  0.23666283  0.81979052  0.80457677     0.03050
C145        C  0.73729398  0.80764607  0.30544511     0.03050
C146        C  0.83547711  0.70062659  0.28228695     0.03050
C147        C  0.73258771  0.70208988  0.19239238     0.03050
C148        C  0.81716431  0.82569239  0.19058122     0.03050
C149        C  0.73447040  0.69747836  0.80282639     0.03050
C150        C  0.83716859  0.69932285  0.71242300     0.03210
C151        C  0.73825075  0.80603683  0.69187323     0.03050
C152        C  0.81844276  0.82182126  0.80676915     0.03050
O153        O  0.10878882  0.11748549  0.89129254    -0.69750
O154        O  0.16398081  0.06714449  0.93912185    -0.48660
C155        C  0.15138613  0.10297442  0.90275362     0.83980
O156        O  0.95002311  0.11222262  0.10848672    -0.54350
O157        O  0.89515965  0.06492200  0.05783643    -0.47380
C158        C  0.90744220  0.09839594  0.09605667     0.75990
O159        O  0.10969902  0.11522805  0.10583430    -0.68910
O160        O  0.16451034  0.06608471  0.05644125    -0.49470
C161        C  0.15223487  0.10078959  0.09376248     0.82000
O162        O  0.94971888  0.11436025  0.88933988    -0.54050
O163        O  0.89501120  0.06574895  0.93918544    -0.47170
C164        C  0.90719786  0.10031268  0.90165671     0.78590
Zr165      Zr  0.02925305  0.09331084  0.92003264     2.54710
O166        O  0.02825574  0.20047569  0.92308849    -0.74620
O167        O  0.02867473  0.09346181  0.82386319    -0.88040
Zr168      Zr  0.02970487  0.09309521  0.07661064     2.64680
O169        O  0.02942116  0.20029781  0.07428827    -0.92990
O170        O  0.03078625  0.09399256  0.17271274    -0.75050
O171        O  0.07553282  0.09571305  0.99814508    -0.78410
O172        O  0.98358529  0.09552494  0.99844389    -2.13120
O173        O  0.95017695  0.89721644  0.88897288    -0.61800
O174        O  0.89530058  0.94496998  0.93927863    -0.46360
C175        C  0.90760890  0.91092566  0.90146402     0.76970
O176        O  0.11028771  0.89572331  0.10525868    -0.54710
O177        O  0.16482870  0.94610781  0.05645777    -0.46680
C178        C  0.15273326  0.91093237  0.09349970     0.78770
O179        O  0.95026430  0.89891143  0.10849080    -0.66100
O180        O  0.89529250  0.94595672  0.05774336    -0.44780
C181        C  0.90765865  0.91272850  0.09608119     0.80160
O182        O  0.10939479  0.89505322  0.89075720    -0.61430
O183        O  0.16434351  0.94507547  0.93919009    -0.48630
C184        C  0.15193598  0.90963748  0.90247031     0.78540
Zr185      Zr  0.02973036  0.91760618  0.92018635     2.77540
O186        O  0.02982321  0.81046741  0.92492521    -0.92180
O187        O  0.03072476  0.91427739  0.82416819    -0.73000
Zr188      Zr  0.03007021  0.91760286  0.07646570     2.70070
O189        O  0.02845966  0.81046327  0.07266632    -0.74250
O190        O  0.03374731  0.91570593  0.17250945    -0.93330
Zr191      Zr  0.11894859  0.00587352  0.99771882     2.21500
Zr192      Zr  0.94051515  0.00542737  0.99826092     2.11130
O193        O  0.98385797  0.91539945  0.99843352    -2.42020
O194        O  0.07612679  0.91555967  0.99815253    -0.74040
O195        O  0.98457763  0.00532071  0.91892518    -0.66240
O196        O  0.07461047  0.00549813  0.07724142    -2.27190
O197        O  0.07425276  0.00565876  0.91850914    -2.23400
O198        O  0.98486956  0.00523628  0.07755658    -0.68000
H199        H  0.96266547  0.12916442  0.99851599     0.84000
H200        H  0.09464214  0.00546904  0.10804649     0.85090
H201        H  0.96298732  0.88172168  0.99860360     0.87310
H202        H  0.09418940  0.00577310  0.88761548     0.84920
H203        H  0.04650359  0.05661721  0.18268551     0.47960
H204        H  0.01017258  0.94523147  0.18409482     0.46930
H205        H  0.05273800  0.80016497  0.04610887     0.46600
H206        H  0.00032488  0.80029355  0.94378723     0.44540
H207        H  0.01706649  0.95254642  0.81316927     0.47670
H208        H  0.05367506  0.06522726  0.81351073     0.42450
H209        H  0.04969019  0.21062644  0.95258451     0.48570
H210        H  0.00037739  0.21076500  0.05468233     0.44990
H211        H  0.02422912  0.79757836  0.88811828     0.49900
H212        H  0.04125789  0.13258042  0.81375565     0.48630
H213        H  0.02277182  0.21209068  0.11117379     0.48760
H214        H  0.02000002  0.87721178  0.18264092     0.49120
C215        C  0.73728060  0.20411576  0.30542527     0.03050
C216        C  0.81734743  0.18648717  0.19053543     0.03050
C217        C  0.73255736  0.30999869  0.19244862     0.03050
C218        C  0.83546623  0.31141144  0.28252021     0.03050
O219        O  0.12096633  0.61843598  0.40865005    -0.69750
O220        O  0.07985130  0.57115514  0.34344170    -0.48660
C221        C  0.11231066  0.60651198  0.36030520     0.83980
O222        O  0.12080242  0.39294316  0.58110646    -0.54350
O223        O  0.08062958  0.44171161  0.64620445    -0.47380
C224        C  0.11262595  0.40557896  0.62945405     0.75990
O225        O  0.12100321  0.39419546  0.40895012    -0.68910
O226        O  0.08019129  0.44179920  0.34367430    -0.49470
C227        C  0.11250384  0.40619842  0.36059754     0.82000
O228        O  0.12025024  0.62069039  0.58122206    -0.54050
O229        O  0.08007448  0.57171405  0.64624901    -0.47170
C230        C  0.11196282  0.60799263  0.62956418     0.78590
Zr231      Zr  0.09236384  0.59326098  0.49495748     2.54710
O232        O  0.17830037  0.59061798  0.49516481    -0.74620
O233        O  0.08733781  0.70037513  0.49474314    -0.88040
Zr234      Zr  0.09284142  0.42072163  0.49498072     2.64680
O235        O  0.17867601  0.42769370  0.49230995    -0.92990
O236        O  0.09055871  0.31348383  0.49542776    -0.75050
O237        O  0.09313963  0.50695552  0.44289018    -0.78410
O238        O  0.09357027  0.50695113  0.54685086    -2.13120
O239        O  0.92810265  0.62050425  0.58177376    -0.61800
O240        O  0.96820111  0.57118033  0.64661730    -0.46360
C241        C  0.93632898  0.60754847  0.63005057     0.76970
O242        O  0.92556547  0.39585062  0.40972105    -0.54710
O243        O  0.96691441  0.44219532  0.34415536    -0.46680
C244        C  0.93411705  0.40746600  0.36130278     0.78770
O245        O  0.92758815  0.39282902  0.58153022    -0.66100
O246        O  0.96807638  0.44148568  0.64643811    -0.44780
C247        C  0.93598387  0.40539470  0.62984640     0.80160
O248        O  0.92593214  0.61741497  0.40936173    -0.61430
O249        O  0.96702617  0.57046458  0.34393036    -0.48630
C250        C  0.93438272  0.60541662  0.36099674     0.78540
Zr251      Zr  0.95555676  0.59308077  0.49531353     2.77540
O252        O  0.86951678  0.59247591  0.49405379    -0.92180
O253        O  0.96263614  0.69996246  0.49370723    -0.73000
Zr254      Zr  0.95568115  0.42033770  0.49541684     2.70070
O255        O  0.86975657  0.42257151  0.49670514    -0.74250
O256        O  0.96198075  0.31342890  0.49319798    -0.93330
Zr257      Zr  0.02380365  0.50647910  0.38972863     2.21500
Zr258      Zr  0.02421012  0.50649724  0.60033657     2.11130
O259        O  0.95470428  0.50668507  0.54710150    -2.42020
O260        O  0.95482562  0.50664181  0.44345234    -0.74040
O261        O  0.02405809  0.59486539  0.54864107    -0.66240
O262        O  0.02407734  0.41849637  0.44193426    -2.27190
O263        O  0.02380976  0.59478695  0.44164739    -2.23400
O264        O  0.02435522  0.41834561  0.54851837    -0.68000
H265        H  0.12171228  0.50710065  0.56833238     0.84000
H266        H  0.02394150  0.38386044  0.41975889     0.85090
H267        H  0.92658217  0.50661897  0.56862057     0.87310
H268        H  0.02362156  0.62933520  0.41934740     0.84920
H269        H  0.06811509  0.30289179  0.46702794     0.47960
H270        H  0.98085043  0.30330427  0.52482166     0.46930
H271        H  0.86134896  0.45940342  0.47793428     0.46600
H272        H  0.86010123  0.56670668  0.52378846     0.44540
H273        H  0.98479812  0.70922618  0.52276023     0.47670
H274        H  0.07140803  0.71043887  0.46115140     0.42450
H275        H  0.18654000  0.55691126  0.47210564     0.48570
H276        H  0.18742261  0.45206401  0.52320605     0.44990
H277        H  0.86017800  0.63265445  0.50518668     0.49900
H278        H  0.12033737  0.71365278  0.48975484     0.48630
H279        H  0.18994722  0.38758255  0.50117435     0.48760
H280        H  0.92973886  0.29932917  0.50147539     0.49120
C281        C  0.87231574  0.34896408  0.30521391    -0.07730
C282        C  0.90300109  0.37829177  0.32524611    -0.09290
C283        C  0.80248463  0.34521442  0.24944637    -0.07730
C284        C  0.76893226  0.34458696  0.21993870    -0.09290
C285        C  0.78523781  0.22467235  0.16056473    -0.07730
C286        C  0.75769192  0.26527199  0.16140322    -0.09290
C287        C  0.85004660  0.22596917  0.21814730    -0.07730
C288        C  0.85624678  0.26665906  0.24794120    -0.09290
C289        C  0.70829663  0.24267305  0.27075765    -0.07730
C290        C  0.70643060  0.27728390  0.23399187    -0.09290
C291        C  0.80599246  0.27850097  0.32130738    -0.07730
C292        C  0.77400742  0.24330327  0.32864220    -0.09290
C293        C  0.78878004  0.15732812  0.23172971    -0.07730
C294        C  0.76270473  0.16382248  0.26934011    -0.09290
C295        C  0.87081280  0.12230045  0.12786190    -0.07730
C296        C  0.84340132  0.14691596  0.15635690    -0.09290
C297        C  0.87107521  0.88620786  0.87011729    -0.07730
C298        C  0.84405391  0.86111404  0.84154296    -0.09290
C299        C  0.76346212  0.84576321  0.72857613    -0.07730
C300        C  0.78957517  0.85156996  0.76621462    -0.09290
C301        C  0.80731762  0.73282568  0.67449471    -0.07730
C302        C  0.77512560  0.76782939  0.66781380    -0.09290
C303        C  0.85772728  0.74344199  0.74781277    -0.07730
C304        C  0.85142578  0.78338811  0.77838318    -0.09290
C305        C  0.90529582  0.63587111  0.66676957    -0.07730
C306        C  0.87435272  0.66341368  0.68829278    -0.09290
C307        C  0.70965195  0.76640701  0.72585401    -0.07730
C308        C  0.70820544  0.73094062  0.76193583    -0.09290
C309        C  0.77101468  0.66356824  0.77466625    -0.07730
C310        C  0.80455661  0.66411640  0.74500225    -0.09290
C311        C  0.75950008  0.74169615  0.83452592    -0.07730
C312        C  0.78673911  0.78256255  0.83610171    -0.09290
C313        C  0.84333099  0.86514144  0.15649670    -0.07730
C314        C  0.87102702  0.88925575  0.12805036    -0.09290
C315        C  0.78507965  0.78758240  0.16055638    -0.07730
C316        C  0.75760952  0.74692642  0.16137499    -0.09290
C317        C  0.80256202  0.66678098  0.24922694    -0.07730
C318        C  0.76900165  0.66744201  0.21975131    -0.09290
C319        C  0.84987004  0.78619755  0.21810388    -0.07730
C320        C  0.85616068  0.74546004  0.24779054    -0.09290
C321        C  0.90323836  0.63425030  0.32487302    -0.07730
C322        C  0.87241510  0.66326620  0.30484329    -0.09290
C323        C  0.70831852  0.76914470  0.27078949    -0.07730
C324        C  0.70644955  0.73462123  0.23399691    -0.09290
C325        C  0.76260408  0.84812468  0.26942777    -0.07730
C326        C  0.78862562  0.85480608  0.23180291    -0.09290
C327        C  0.80604367  0.73334933  0.32118160    -0.07730
C328        C  0.77405462  0.76849176  0.32859665    -0.09290
C329        C  0.21351492  0.85978172  0.84061751    -0.07730
C330        C  0.18807480  0.88503766  0.87072038    -0.09290
C331        C  0.19387691  0.74304423  0.74691795    -0.07730
C332        C  0.20188747  0.78279345  0.77724859    -0.09290
C333        C  0.14300441  0.63638739  0.66624873    -0.07730
C334        C  0.17428160  0.66348850  0.68762174    -0.09290
C335        C  0.27525850  0.76425304  0.66450543    -0.07730
C336        C  0.24240540  0.73052415  0.67221364    -0.09290
C337        C  0.29025588  0.84147644  0.72498413    -0.07730
C338        C  0.26520110  0.84851501  0.76328057    -0.09290
C339        C  0.27936798  0.65956745  0.77126139    -0.07730
C340        C  0.24514137  0.66166110  0.74261381    -0.09290
C341        C  0.29409387  0.73749464  0.83022270    -0.07730
C342        C  0.26801463  0.77932043  0.83271207    -0.09290
C343        C  0.34358298  0.72451970  0.75655757    -0.07730
C344        C  0.34209229  0.76010922  0.72056042    -0.09290
C345        C  0.87065909  0.12531669  0.87038742    -0.07730
C346        C  0.84392313  0.15075520  0.84165174    -0.09290
C347        C  0.76339816  0.16621810  0.72855985    -0.07730
C348        C  0.78955348  0.16046896  0.76618467    -0.09290
C349        C  0.80716642  0.27916349  0.67438814    -0.07730
C350        C  0.77496594  0.24414045  0.66774854    -0.09290
C351        C  0.85143553  0.22863933  0.77831585    -0.07730
C352        C  0.85767942  0.26860537  0.74768731    -0.09290
C353        C  0.87417311  0.34888211  0.68805849    -0.07730
C354        C  0.90499318  0.37677042  0.66655910    -0.09290
C355        C  0.70948990  0.24549819  0.72583808    -0.07730
C356        C  0.70803755  0.28097704  0.76192421    -0.09290
C357        C  0.78671416  0.22945458  0.83602708    -0.07730
C358        C  0.75942591  0.27028521  0.83446098    -0.09290
C359        C  0.77084418  0.34837263  0.77454255    -0.07730
C360        C  0.80438368  0.34784628  0.74486265    -0.09290
C361        C  0.68291886  0.14257789  0.37376216    -0.07730
C362        C  0.70864744  0.17111860  0.34483061    -0.09290
C363        C  0.70932315  0.83950113  0.65320038    -0.07730
C364        C  0.68335785  0.86827222  0.62480159    -0.09290
C365        C  0.70866925  0.84039006  0.34490692    -0.07730
C366        C  0.68289171  0.86872802  0.37386893    -0.09290
C367        C  0.36794128  0.86332144  0.62045051    -0.07730
C368        C  0.34219868  0.83384630  0.64841534    -0.09290
C369        C  0.68326851  0.14332851  0.62474010    -0.07730
C370        C  0.70917159  0.17225299  0.65314274    -0.09290
C371        C  0.34186339  0.83456962  0.35041290    -0.07730
C372        C  0.36752735  0.86351163  0.37901967    -0.09290
C373        C  0.24220473  0.73156356  0.32300266    -0.07730
C374        C  0.27494489  0.76519886  0.33186444    -0.09290
C375        C  0.17452246  0.66422937  0.30432293    -0.07730
C376        C  0.14321444  0.63566052  0.32402080    -0.09290
C377        C  0.19485497  0.74574626  0.24757504    -0.07730
C378        C  0.20345441  0.78614776  0.21818303    -0.09290
C379        C  0.26630359  0.85191631  0.23437789    -0.07730
C380        C  0.29081364  0.84388405  0.27301441    -0.09290
C381        C  0.21523616  0.86395919  0.15613698    -0.07730
C382        C  0.18920694  0.88785100  0.12573996    -0.09290
C383        C  0.34481928  0.72756948  0.24034235    -0.07730
C384        C  0.34264798  0.76237030  0.27693628    -0.09290
C385        C  0.28072356  0.66328002  0.22332435    -0.07730
C386        C  0.24613320  0.66457734  0.25132366    -0.09290
C387        C  0.29640773  0.74235841  0.16600136    -0.07730
C388        C  0.27032989  0.78420006  0.16383782    -0.09290
C389        C  0.67996495  0.37606855  0.12838979    -0.07730
C390        C  0.70343510  0.34701290  0.15830476    -0.09290
C391        C  0.70499717  0.66037093  0.83657608    -0.07730
C392        C  0.68061795  0.63270634  0.86666722    -0.09290
C393        C  0.70348725  0.66518367  0.15826297    -0.07730
C394        C  0.68000857  0.63627515  0.12831729    -0.09290
C395        C  0.37027241  0.62927134  0.86405163    -0.07730
C396        C  0.34637140  0.65506529  0.83223927    -0.09290
C397        C  0.70492211  0.35167209  0.83664204    -0.07730
C398        C  0.68069332  0.37949635  0.86680953    -0.09290
C399        C  0.34794025  0.65922146  0.16350420    -0.07730
C400        C  0.37106345  0.63244488  0.13167629    -0.09290
C401        C  0.34682602  0.35669588  0.83252656    -0.07730
C402        C  0.37052693  0.38264989  0.86443024    -0.09290
C403        C  0.24603004  0.35086930  0.74226410    -0.07730
C404        C  0.28016234  0.35262896  0.77107303    -0.09290
C405        C  0.14389098  0.37715474  0.66598317    -0.07730
C406        C  0.17521462  0.34979687  0.68711275    -0.09290
C407        C  0.29406065  0.27477659  0.83037648    -0.07730
C408        C  0.26766178  0.23327565  0.83284249    -0.09290
C409        C  0.20171916  0.23035773  0.77708987    -0.07730
C410        C  0.19417117  0.27010901  0.74657978    -0.09290
C411        C  0.18734091  0.12806539  0.87101582    -0.07730
C412        C  0.21267545  0.15338573  0.84081749    -0.09290
C413        C  0.34239580  0.25120415  0.72103843    -0.07730
C414        C  0.34399872  0.28689411  0.75695930    -0.09290
C415        C  0.27574189  0.24770764  0.66462634    -0.07730
C416        C  0.24306465  0.28184186  0.67203709    -0.09290
C417        C  0.28993375  0.17047902  0.72539606    -0.07730
C418        C  0.26465605  0.16391107  0.76359415    -0.09290
C419        C  0.34232829  0.17719441  0.64898775    -0.07730
C420        C  0.36800042  0.14750727  0.62104270    -0.09290
C421        C  0.17484278  0.34815562  0.30493190    -0.07730
C422        C  0.14348336  0.37686708  0.32444275    -0.09290
C423        C  0.20320063  0.22656750  0.21821503    -0.07730
C424        C  0.19486579  0.26681445  0.24786482    -0.09290
C425        C  0.21460207  0.14881716  0.15593699    -0.07730
C426        C  0.18860938  0.12444601  0.12581184    -0.09290
C427        C  0.27516404  0.24635918  0.33176968    -0.07730
C428        C  0.24247627  0.28023604  0.32321996    -0.09290
C429        C  0.29058042  0.16800678  0.27246613    -0.07730
C430        C  0.26592362  0.16045149  0.23388355    -0.09290
C431        C  0.36753349  0.14699340  0.37816703    -0.07730
C432        C  0.34193578  0.17630407  0.34970974    -0.09290
C433        C  0.34271917  0.24913216  0.27654443    -0.07730
C434        C  0.34487155  0.28415076  0.24007968    -0.09290
C435        C  0.24643279  0.34764107  0.25182225    -0.07730
C436        C  0.28094157  0.34891881  0.22368706    -0.09290
C437        C  0.29615765  0.27021157  0.16581422    -0.07730
C438        C  0.26990793  0.22852543  0.16356243    -0.09290
C439        C  0.37112506  0.38041896  0.13201807    -0.07730
C440        C  0.34800843  0.35323859  0.16363040    -0.09290
loop_ 
_geom_bond_atom_site_label_1 
_geom_bond_atom_site_label_2 
_geom_bond_distance 
_geom_bond_site_symmetry_2 
_ccdc_geom_bond_type 
C1          C434   1.486       .  S
C1          C436   1.472       .  S
C1          C437   1.464       .  S
C1          C440   1.460       .  S
C2          C427   1.490       .  S
C2          C429   1.479       .  S
C2          C432   1.488       .  S
C2          C433   1.488       .  S
C3          C423   1.467       .  S
C3          C425   1.445       .  S
C3          C430   1.475       .  S
C3          C438   1.463       .  S
C4          C421   1.466       .  S
C4          C424   1.465       .  S
C4          C428   1.491       .  S
C4          C435   1.472       .  S
C5          C413   1.486       .  S
C5          C415   1.488       .  S
C5          C417   1.478       .  S
C5          C419   1.485       .  S
C6          C408   1.462       .  S
C6          C409   1.468       .  S
C6          C412   1.445       .  S
C6          C418   1.475       .  S
C7          C403   1.475       .  S
C7          C406   1.467       .  S
C7          C410   1.467       .  S
C7          C416   1.489       .  S
C8          C401   1.461       .  S
C8          C404   1.475       .  S
C8          C407   1.464       .  S
C8          C414   1.485       .  S
O9          Zr21   2.418       .  S
O9           C11   1.281       .  A
O10         Zr47   2.445       .  S
O10          C11   1.290       .  A
C11         C402   1.430       .  S
O12         Zr24   2.408       .  S
O12          C14   1.280       .  A
O13         Zr48   2.447   1_554  S
O13          C14   1.290       .  A
C14         C389   1.430       .  S
O15         Zr24   2.411       .  S
O15          C17   1.280       .  A
O16         Zr47   2.449   1_554  S
O16          C17   1.291       .  A
C17         C439   1.430       .  S
O18         Zr21   2.415       .  S
O18          C20   1.281       .  A
O19         Zr48   2.445       .  S
O19          C20   1.290       .  A
C20         C398   1.432       .  S
Zr21         O22   2.433       .  S
Zr21         O23   2.437       .  S
Zr21         O27   2.373       .  S
Zr21         O28   2.367       .  S
Zr21         O51   2.362       .  S
Zr21         O53   2.357       .  S
O22          H65   0.990       .  S
O23          H64   0.990       .  S
O23          H68   0.990       .  S
Zr24         O25   2.433       .  S
Zr24         O26   2.436       .  S
Zr24         O28   2.368   1_554  S
Zr24         O27   2.371   1_554  S
Zr24         O52   2.357       .  S
Zr24         O54   2.364       .  S
O25          H66   0.990       .  S
O25          H69   0.990       .  S
O26          H59   0.990       .  S
O27         Zr47   2.391       .  S
O28         Zr48   2.390       .  S
O28          H55   0.966       .  S
O29         Zr41   2.417       .  S
O29          C31   1.282       .  A
O30         Zr48   2.442       .  S
O30          C31   1.289       .  A
C31         C392   1.431       .  S
O32         Zr44   2.410       .  S
O32          C34   1.280       .  A
O33         Zr47   2.448   1_554  S
O33          C34   1.291       .  A
C34         C400   1.428       .  S
O35         Zr44   2.409       .  S
O35          C37   1.280       .  A
O36         Zr48   2.444   1_554  S
O36          C37   1.290       .  A
C37         C394   1.428       .  S
O38         Zr41   2.418       .  S
O38          C40   1.282       .  A
O39         Zr47   2.444       .  S
O39          C40   1.290       .  A
C40         C395   1.430       .  S
Zr41         O42   2.434       .  S
Zr41         O43   2.434       .  S
Zr41         O49   2.366       .  S
Zr41         O50   2.371       .  S
Zr41         O53   2.358       .  S
Zr41         O51   2.364       .  S
O42          H62   0.990       .  S
O42          H67   0.990       .  S
O43          H63   0.990       .  S
Zr44         O45   2.433       .  S
Zr44         O46   2.437       .  S
Zr44         O50   2.371   1_554  S
Zr44         O49   2.366   1_554  S
Zr44         O54   2.364       .  S
Zr44         O52   2.356       .  S
O45          H61   0.990       .  S
O46          H60   0.990       .  S
O46          H70   0.990       .  S
Zr47         O50   2.392       .  S
Zr47         O52   2.381   1_556  S
Zr47         O53   2.384       .  S
Zr48         O49   2.392       .  S
Zr48         O51   2.378       .  S
Zr48         O54   2.379   1_556  S
O49          H57   0.966       .  S
O52          H56   0.965       .  S
O53          H58   0.965       .  S
C71         C383   1.485       .  S
C71         C385   1.472       .  S
C71         C387   1.463       .  S
C71         C399   1.458       .  S
C72         C378   1.467       .  S
C72         C379   1.475       .  S
C72         C381   1.445       .  S
C72         C388   1.462       .  S
C73         C373   1.490       .  S
C73         C375   1.465       .  S
C73         C377   1.465       .  S
C73         C386   1.472       .  S
C74         C371   1.486       .  S
C74         C374   1.490       .  S
C74         C380   1.479       .  S
C74         C384   1.487       .  S
O75         Zr87   2.447       .  S
O75          C77   1.288       .  A
O76        Zr113   2.465       .  S
O76          C77   1.294       .  A
C77         C420   1.455       .  S
O78         Zr90   2.449       .  S
O78          C80   1.288       .  A
O79        Zr114   2.467       .  S
O79          C80   1.294       .  A
C80         C361   1.457       .  S
O81         Zr90   2.448       .  S
O81          C83   1.288       .  A
O82        Zr113   2.467       .  S
O82          C83   1.294       .  A
C83         C431   1.457       .  S
O84         Zr87   2.448       .  S
O84          C86   1.288       .  A
O85        Zr114   2.468       .  S
O85          C86   1.294       .  A
C86         C369   1.457       .  S
Zr87         O88   2.432       .  S
Zr87         O89   2.437       .  S
Zr87         O93   2.374       .  S
Zr87         O94   2.376       .  S
Zr87        O117   2.372       .  S
Zr87        O119   2.374       .  S
O88         H131   0.990       .  S
O89         H130   0.990       .  S
O89         H134   0.990       .  S
Zr90         O91   2.434       .  S
Zr90         O92   2.436       .  S
Zr90         O94   2.376       .  S
Zr90         O93   2.373       .  S
Zr90        O118   2.375       .  S
Zr90        O120   2.373       .  S
O91         H132   0.990       .  S
O91         H135   0.990       .  S
O92         H125   0.990       .  S
O93        Zr113   2.391       .  S
O94        Zr114   2.396       .  S
O94         H121   0.966       .  S
O95        Zr107   2.449       .  S
O95          C97   1.288       .  A
O96        Zr114   2.465   1_565  S
O96          C97   1.294       .  A
C97         C364   1.455       .  S
O98        Zr110   2.448       .  S
O98         C100   1.288       .  A
O99        Zr113   2.466   1_565  S
O99         C100   1.294       .  A
C100        C372   1.456       .  S
O101       Zr110   2.448       .  S
O101        C103   1.288       .  A
O102       Zr114   2.466   1_565  S
O102        C103   1.294       .  A
C103        C366   1.455       .  S
O104       Zr107   2.445       .  S
O104        C106   1.288       .  A
O105       Zr113   2.462   1_565  S
O105        C106   1.293       .  A
C106        C367   1.453       .  S
Zr107       O108   2.434       .  S
Zr107       O109   2.435       .  S
Zr107       O115   2.374       .  S
Zr107       O116   2.373       .  S
Zr107       O119   2.374   1_565  S
Zr107       O117   2.373   1_565  S
O108        H128   0.990       .  S
O108        H133   0.990       .  S
O109        H129   0.990       .  S
Zr110       O111   2.433       .  S
Zr110       O112   2.435       .  S
Zr110       O116   2.372       .  S
Zr110       O115   2.374       .  S
Zr110       O120   2.373   1_565  S
Zr110       O118   2.374   1_565  S
O111        H127   0.990       .  S
O112        H126   0.990       .  S
O112        H136   0.990       .  S
Zr113       O116   2.391   1_545  S
Zr113       O118   2.395       .  S
Zr113       O119   2.397       .  S
Zr114       O115   2.397   1_545  S
Zr114       O117   2.393       .  S
Zr114       O120   2.393       .  S
O115        H123   0.966       .  S
O118        H122   0.966       .  S
O119        H124   0.966       .  S
C137        C356   1.485       .  S
C137        C358   1.468       .  S
C137        C359   1.474       .  S
C137        C397   1.463       .  S
C138        C349   1.489       .  S
C138        C352   1.466       .  S
C138        C353   1.467       .  S
C138        C360   1.474       .  S
C139        C347   1.479       .  S
C139        C350   1.489       .  S
C139        C355   1.486       .  S
C139        C370   1.488       .  S
C140        C346   1.450       .  S
C140        C348   1.477       .  S
C140        C351   1.468       .  S
C140        C357   1.467       .  S
C141        C339   1.474       .  S
C141        C341   1.464       .  S
C141        C343   1.484       .  S
C141        C396   1.460       .  S
C142        C335   1.487       .  S
C142        C337   1.477       .  S
C142        C344   1.486       .  S
C142        C368   1.483       .  S
C143        C331   1.466       .  S
C143        C334   1.466       .  S
C143        C336   1.488       .  S
C143        C340   1.475       .  S
C144        C329   1.445       .  S
C144        C332   1.468       .  S
C144        C338   1.474       .  S
C144        C342   1.463       .  S
C145        C323   1.486       .  S
C145        C325   1.480       .  S
C145        C328   1.489       .  S
C145        C365   1.486       .  S
C146        C317   1.470       .  S
C146        C320   1.463       .  S
C146        C322   1.463       .  S
C146        C327   1.489       .  S
C147        C316   1.468       .  S
C147        C318   1.470       .  S
C147        C324   1.485       .  S
C147        C393   1.459       .  S
C148        C313   1.448       .  S
C148        C315   1.467       .  S
C148        C319   1.465       .  S
C148        C326   1.477       .  S
C149        C308   1.484       .  S
C149        C309   1.474       .  S
C149        C311   1.468       .  S
C149        C391   1.462       .  S
C150        C301   1.488       .  S
C150        C303   1.465       .  S
C150        C306   1.465       .  S
C150        C310   1.474       .  S
C151        C299   1.479       .  S
C151        C302   1.488       .  S
C151        C307   1.485       .  S
C151        C363   1.486       .  S
C152        C298   1.448       .  S
C152        C300   1.476       .  S
C152        C304   1.466       .  S
C152        C312   1.467       .  S
O153       Zr165   2.430       .  S
O153        C155   1.284       .  A
O154       Zr191   2.401       .  S
O154        C155   1.279       .  A
C155        C411   1.417       .  S
O156       Zr168   2.436   1_655  S
O156        C158   1.286       .  A
O157       Zr192   2.398   1_554  S
O157        C158   1.279       .  A
C158        C295   1.421       .  S
O159       Zr168   2.436       .  S
O159        C161   1.286       .  A
O160       Zr191   2.397   1_554  S
O160        C161   1.279       .  A
C161        C426   1.418       .  S
O162       Zr165   2.431   1_655  S
O162        C164   1.284       .  A
O163       Zr192   2.403       .  S
O163        C164   1.280       .  A
C164        C345   1.421       .  S
Zr165       O166   2.432       .  S
Zr165       O167   2.437       .  S
Zr165       O171   2.375       .  S
Zr165       O172   2.371   1_455  S
Zr165       O195   2.364   1_455  S
Zr165       O197   2.362       .  S
O166        H209   0.990       .  S
O167        H208   0.990       .  S
O167        H212   0.990       .  S
Zr168       O169   2.433       .  S
Zr168       O170   2.435       .  S
Zr168       O172   2.373   1_454  S
Zr168       O171   2.375   1_554  S
Zr168       O196   2.359       .  S
Zr168       O198   2.364   1_455  S
O169        H210   0.990       .  S
O169        H213   0.990       .  S
O170        H203   0.990       .  S
O171       Zr191   2.380       .  S
O172       Zr192   2.380       .  S
O172        H199   0.966       .  S
O173       Zr185   2.433   1_655  S
O173        C175   1.285       .  A
O174       Zr192   2.399   1_565  S
O174        C175   1.279       .  A
C175        C297   1.420       .  S
O176       Zr188   2.437       .  S
O176        C178   1.286       .  A
O177       Zr191   2.396   1_564  S
O177        C178   1.279       .  A
C178        C382   1.417       .  S
O179       Zr188   2.439   1_655  S
O179        C181   1.286       .  A
O180       Zr192   2.394   1_564  S
O180        C181   1.278       .  A
C181        C314   1.420       .  S
O182       Zr185   2.431       .  S
O182        C184   1.284       .  A
O183       Zr191   2.399   1_565  S
O183        C184   1.279       .  A
C184        C330   1.417       .  S
Zr185       O186   2.433       .  S
Zr185       O187   2.434       .  S
Zr185       O193   2.371   1_455  S
Zr185       O194   2.373       .  S
Zr185       O197   2.363   1_565  S
Zr185       O195   2.365   1_465  S
O186        H206   0.990       .  S
O186        H211   0.990       .  S
O187        H207   0.990       .  S
Zr188       O189   2.433       .  S
Zr188       O190   2.436       .  S
Zr188       O194   2.375   1_554  S
Zr188       O193   2.372   1_454  S
Zr188       O198   2.365   1_465  S
Zr188       O196   2.360   1_565  S
O189        H205   0.990       .  S
O190        H204   0.990       .  S
O190        H214   0.990       .  S
Zr191       O194   2.381   1_545  S
Zr191       O196   2.374   1_556  S
Zr191       O197   2.373       .  S
Zr192       O193   2.383   1_545  S
Zr192       O195   2.366       .  S
Zr192       O198   2.370   1_556  S
O193        H201   0.966       .  S
O196        H200   0.965       .  S
O197        H202   0.965       .  S
C215        C289   1.487       .  S
C215        C292   1.490       .  S
C215        C294   1.480       .  S
C215        C362   1.488       .  S
C216        C285   1.468       .  S
C216        C287   1.466       .  S
C216        C293   1.477       .  S
C216        C296   1.449       .  S
C217        C284   1.471       .  S
C217        C286   1.468       .  S
C217        C290   1.485       .  S
C217        C390   1.461       .  S
C218        C281   1.465       .  S
C218        C283   1.471       .  S
C218        C288   1.465       .  S
C218        C291   1.490       .  S
O219       Zr231   2.401       .  S
O219        C221   1.278       .  A
O220       Zr257   2.459       .  S
O220        C221   1.293       .  A
C221        C376   1.431       .  S
O222       Zr234   2.405       .  S
O222        C224   1.279       .  A
O223       Zr258   2.462       .  S
O223        C224   1.294       .  A
C224        C405   1.434       .  S
O225       Zr234   2.398       .  S
O225        C227   1.278       .  A
O226       Zr257   2.463       .  S
O226        C227   1.294       .  A
C227        C422   1.433       .  S
O228       Zr231   2.406       .  S
O228        C230   1.280       .  A
O229       Zr258   2.459       .  S
O229        C230   1.293       .  A
C230        C333   1.433       .  S
Zr231       O232   2.435       .  S
Zr231       O233   2.434       .  S
Zr231       O237   2.361       .  S
Zr231       O238   2.358       .  S
Zr231       O261   2.365       .  S
Zr231       O263   2.366       .  S
O232        H275   0.990       .  S
O233        H274   0.990       .  S
O233        H278   0.990       .  S
Zr234       O235   2.437       .  S
Zr234       O236   2.434       .  S
Zr234       O238   2.357       .  S
Zr234       O237   2.359       .  S
Zr234       O262   2.367       .  S
Zr234       O264   2.368       .  S
O235        H276   0.990       .  S
O235        H279   0.990       .  S
O236        H269   0.990       .  S
O237       Zr257   2.382       .  S
O238       Zr258   2.387       .  S
O238        H265   0.965       .  S
O239       Zr251   2.406       .  S
O239        C241   1.279       .  A
O240       Zr258   2.459   1_655  S
O240        C241   1.293       .  A
C241        C305   1.432       .  S
O242       Zr254   2.398       .  S
O242        C244   1.278       .  A
O243       Zr257   2.461   1_655  S
O243        C244   1.293       .  A
C244        C282   1.432       .  S
O245       Zr254   2.405       .  S
O245        C247   1.279       .  A
O246       Zr258   2.463   1_655  S
O246        C247   1.294       .  A
C247        C354   1.434       .  S
O248       Zr251   2.398       .  S
O248        C250   1.278       .  A
O249       Zr257   2.457   1_655  S
O249        C250   1.293       .  A
C250        C321   1.429       .  S
Zr251       O252   2.437       .  S
Zr251       O253   2.433       .  S
Zr251       O259   2.358       .  S
Zr251       O260   2.361       .  S
Zr251       O263   2.364   1_655  S
Zr251       O261   2.365   1_655  S
O252        H272   0.990       .  S
O252        H277   0.990       .  S
O253        H273   0.990       .  S
Zr254       O255   2.435       .  S
Zr254       O256   2.432       .  S
Zr254       O260   2.359       .  S
Zr254       O259   2.357       .  S
Zr254       O264   2.366   1_655  S
Zr254       O262   2.365   1_655  S
O255        H271   0.990       .  S
O256        H270   0.990       .  S
O256        H280   0.990       .  S
Zr257       O260   2.381   1_455  S
Zr257       O262   2.394       .  S
Zr257       O263   2.397       .  S
Zr258       O259   2.387   1_455  S
Zr258       O261   2.394       .  S
Zr258       O264   2.392       .  S
O259        H267   0.965       .  S
O262        H266   0.966       .  S
O263        H268   0.966       .  S
C281        C282   1.207       .  T
C283        C284   1.209       .  T
C285        C286   1.207       .  T
C287        C288   1.205       .  T
C289        C290   1.219       .  T
C291        C292   1.222       .  T
C293        C294   1.215       .  T
C295        C296   1.198       .  T
C297        C298   1.198       .  T
C299        C300   1.214       .  T
C301        C302   1.221       .  T
C303        C304   1.205       .  T
C305        C306   1.207       .  T
C307        C308   1.218       .  T
C309        C310   1.212       .  T
C311        C312   1.207       .  T
C313        C314   1.198       .  T
C315        C316   1.207       .  T
C317        C318   1.209       .  T
C319        C320   1.205       .  T
C321        C322   1.205       .  T
C323        C324   1.219       .  T
C325        C326   1.215       .  T
C327        C328   1.221       .  T
C329        C330   1.196       .  T
C331        C332   1.206       .  T
C333        C334   1.207       .  T
C335        C336   1.221       .  T
C337        C338   1.213       .  T
C339        C340   1.212       .  T
C341        C342   1.204       .  T
C343        C344   1.219       .  T
C345        C346   1.198       .  T
C347        C348   1.214       .  T
C349        C350   1.221       .  T
C351        C352   1.206       .  T
C353        C354   1.208       .  T
C355        C356   1.219       .  T
C357        C358   1.207       .  T
C359        C360   1.212       .  T
C361        C362   1.220       .  T
C363        C364   1.218       .  T
C365        C366   1.219       .  T
C367        C368   1.217       .  T
C369        C370   1.219       .  T
C371        C372   1.219       .  T
C373        C374   1.222       .  T
C375        C376   1.206       .  T
C377        C378   1.206       .  T
C379        C380   1.214       .  T
C381        C382   1.196       .  T
C383        C384   1.219       .  T
C385        C386   1.210       .  T
C387        C388   1.204       .  T
C389        C390   1.204       .  T
C391        C392   1.205       .  T
C393        C394   1.203       .  T
C395        C396   1.204       .  T
C397        C398   1.206       .  T
C399        C400   1.203       .  T
C401        C402   1.205       .  T
C403        C404   1.212       .  T
C405        C406   1.208       .  T
C407        C408   1.204       .  T
C409        C410   1.207       .  T
C411        C412   1.196       .  T
C413        C414   1.219       .  T
C415        C416   1.221       .  T
C417        C418   1.213       .  T
C419        C420   1.218       .  T
C421        C422   1.207       .  T
C423        C424   1.206       .  T
C425        C426   1.196       .  T
C427        C428   1.222       .  T
C429        C430   1.214       .  T
C431        C432   1.220       .  T
C433        C434   1.220       .  T
C435        C436   1.210       .  T
C437        C438   1.204       .  T
C439        C440   1.204       .  T
