geometry optimzed in LAMMPS
_audit_creation_date              2020-11-30 
_audit_creation_method            'lammps2cif' 
_symmetry_space_group_name_H-M    'P1' 
_symmetry_Int_Tables_number       1 
_symmetry_cell_setting            triclinic 
loop_ 
_symmetry_equiv_pos_as_xyz 
  x,y,z 
_cell_length_a                    26.154725257441996 
_cell_length_b                    42.088720331367064 
_cell_length_c                    26.175374864398453 
_cell_angle_alpha                 90.1497561056934 
_cell_angle_beta                  90.49380277637876 
_cell_angle_gamma                 91.00588327131881 
loop_ 
_atom_site_label 
_atom_site_type_symbol 
_atom_site_fract_x 
_atom_site_fract_y 
_atom_site_fract_z 
_atom_site_charge 
O1          O  0.42249119  0.18190375  0.40010858    -0.75740
O2          O  0.35708053  0.20648013  0.44039889    -0.54650
C3          C  0.37501649  0.18708127  0.40722595     0.77990
O4          O  0.59083170  0.19906090  0.61646648    -0.60340
O5          O  0.65243728  0.21636540  0.56114902    -0.53370
C6          C  0.63755077  0.20323030  0.60299781     0.70000
O7          O  0.42401742  0.18661616  0.60775067    -0.74900
O8          O  0.35951657  0.20785194  0.56016248    -0.55470
C9          C  0.37662152  0.19122923  0.59762004     0.76000
O10         O  0.58885432  0.19979874  0.38316466    -0.60050
O11         O  0.65337609  0.21331519  0.43835432    -0.53170
C12         C  0.63639346  0.20134181  0.39605275     0.72600
Zr13       Zr  0.50779846  0.19585244  0.42747587     2.54710
O14         O  0.52180375  0.13979682  0.44413825    -0.80610
O15         O  0.50525668  0.17876715  0.33831405    -0.94030
Zr16       Zr  0.50804056  0.19853945  0.57415614     2.64680
O17         O  0.51670883  0.14207721  0.55675500    -0.98980
O18         O  0.50745766  0.18274706  0.66360500    -0.81040
O19         O  0.45499806  0.19514907  0.50069276    -0.84400
O20         O  0.56081471  0.19730622  0.50092079    -2.19110
O21         O  0.58118533  0.29555696  0.37913243    -0.67790
O22         O  0.64714291  0.27929080  0.42992499    -0.52360
C23         C  0.62843035  0.29253021  0.38949811     0.70980
O24         O  0.42312777  0.31597074  0.57289299    -0.60700
O25         O  0.36344806  0.27711266  0.56175514    -0.52680
C26         C  0.37990211  0.30315537  0.58287015     0.72780
O27         O  0.58850195  0.30192492  0.60424932    -0.72100
O28         O  0.65372070  0.28181741  0.55872120    -0.50770
C29         C  0.63596769  0.29796930  0.59655638     0.74160
O30         O  0.41731335  0.29786781  0.40599840    -0.67420
O31         O  0.35013895  0.27505218  0.44371563    -0.54620
C32         C  0.36953929  0.29442171  0.41105369     0.72550
Zr33       Zr  0.50364897  0.28860306  0.42363150     2.77540
O34         O  0.50385988  0.34639771  0.42763425    -0.98170
O35         O  0.49205825  0.29284365  0.33153217    -0.78990
Zr36       Zr  0.50508570  0.29145055  0.57023158     2.70070
O37         O  0.51685173  0.34880875  0.57527944    -0.80240
O38         O  0.49311563  0.28231804  0.66142976    -0.99330
Zr39       Zr  0.40324835  0.24189708  0.49908960     2.21500
Zr40       Zr  0.60756069  0.24706990  0.49760445     2.11130
O41         O  0.55672710  0.29349659  0.49658220    -2.48010
O42         O  0.45283631  0.28992118  0.49669618    -0.80030
O43         O  0.55476099  0.24367031  0.42397742    -0.72230
O44         O  0.45575882  0.24410584  0.57439570    -2.33190
O45         O  0.45505242  0.24100691  0.42366239    -2.29390
O46         O  0.55603619  0.24636378  0.57168803    -0.73990
H47         H  0.58369618  0.17953419  0.50174378     0.78010
H48         H  0.43525910  0.24488580  0.60484410     0.79090
H49         H  0.57777061  0.31257284  0.49580366     0.81320
H50         H  0.43449684  0.24026245  0.39286133     0.78930
H51         H  0.49819629  0.20216170  0.68258051     0.41960
H52         H  0.50332197  0.26004299  0.66685723     0.40930
H53         H  0.50441240  0.35673420  0.54192729     0.40610
H54         H  0.53376317  0.35251450  0.44906024     0.38540
H55         H  0.49040370  0.27054941  0.31935122     0.41680
H56         H  0.48074895  0.19299501  0.32115248     0.36460
H57         H  0.48721394  0.12989209  0.44219822     0.42580
H58         H  0.54936739  0.13641468  0.57353879     0.38990
H59         H  0.51282196  0.35332580  0.39267549     0.43910
H60         H  0.48819288  0.15757519  0.33818883     0.42630
H61         H  0.49003490  0.13168127  0.57785473     0.42770
H62         H  0.52044253  0.29491154  0.67875038     0.43130
O63         O  0.90960887  0.18096904  0.91220203    -0.75740
O64         O  0.95302865  0.20667709  0.84843728    -0.54650
C65         C  0.91727073  0.18756034  0.86481262     0.77990
O66         O  0.91214619  0.30325246  0.07615815    -0.60340
O67         O  0.95696021  0.28137288  0.14186458    -0.53370
C68         C  0.92166554  0.29994396  0.12385920     0.70000
O69         O  0.91067787  0.29994249  0.90887547    -0.74900
O70         O  0.95738893  0.27629149  0.84635885    -0.55470
C71         C  0.92105238  0.29441760  0.86183822     0.76000
O72         O  0.91350275  0.18266039  0.08231487    -0.60050
O73         O  0.95483185  0.20913815  0.14676946    -0.53170
C74         C  0.91993456  0.18927858  0.13009730     0.72600
Zr75       Zr  0.94383829  0.19467675  0.99660386     2.54710
O76         O  0.85088566  0.19100497  0.99746015    -0.80610
O77         O  0.95515322  0.13739426  0.99801357    -0.94030
Zr78       Zr  0.94259050  0.28755364  0.99353018     2.64680
O79         O  0.84941703  0.28669805  0.99063747    -0.98980
O80         O  0.95307903  0.34514546  0.99090557    -0.81040
O81         O  0.94309883  0.24047269  0.94446149    -0.84400
O82         O  0.94314900  0.24182469  0.04600445    -2.19110
O83         O  0.12106471  0.18236776  0.07849667    -0.68110
O84         O  0.08404843  0.20880673  0.14376059    -0.52360
C85         C  0.11767248  0.18906953  0.12577641     0.70980
O86         O  0.12062100  0.30561033  0.91286137    -0.60700
O87         O  0.07962835  0.27741622  0.84916119    -0.52680
C88         C  0.11295588  0.29824043  0.86583157     0.72780
O89         O  0.12140043  0.30669402  0.07941133    -0.72100
O90         O  0.08141311  0.27931284  0.14362379    -0.50770
C91         C  0.11505398  0.29966117  0.12662565     0.74160
O92         O  0.12268336  0.18340313  0.91516562    -0.67420
O93         O  0.08206658  0.20726841  0.84912273    -0.54620
C94         C  0.11723469  0.18889738  0.86745500     0.72550
Zr95       Zr  0.09135645  0.19891563  0.99668022     2.77540
O96         O  0.18134827  0.21457411  0.99099623    -0.98170
O97         O  0.10070793  0.14149308  0.99652115    -0.78990
Zr98       Zr  0.08931446  0.29121970  0.99613823     2.70070
O99         O  0.18233912  0.29513411  0.99733889    -0.80240
O100        O  0.07547224  0.34825450  0.99506964    -0.99330
Zr101      Zr  0.01759006  0.24145875  0.89192783     2.21500
Zr102      Zr  0.01770377  0.24350851  0.10087049     2.11130
O103        O  0.09146325  0.24510886  0.04747551    -2.48010
O104        O  0.09140125  0.24460150  0.94557989    -0.80030
O105        O  0.01805184  0.19609491  0.04916887    -0.72230
O106        O  0.01629421  0.28934401  0.94219449    -2.33190
O107        O  0.01755883  0.19476951  0.94444263    -2.29390
O108        O  0.01565281  0.29027361  0.04789001    -0.73990
H109        H  0.91244816  0.24187950  0.06621562     0.78010
H110        H  0.01589400  0.30785635  0.92047118     0.79090
H111        H  0.12236208  0.24560108  0.06787055     0.81320
H112        H  0.01826748  0.17574251  0.92374661     0.78930
H113        H  0.95832809  0.35036081  0.95444752     0.41960
H114        H  0.06197265  0.35317371  0.02936488     0.40930
H115        H  0.19355128  0.27862263  0.97308255     0.40610
H116        H  0.19296878  0.21907934  0.02638923     0.38540
H117        H  0.06808517  0.13319412  0.01053779     0.41680
H118        H  0.96159423  0.13149238  0.96202844     0.36460
H119        H  0.83966819  0.21248281  0.98749808     0.42580
H120        H  0.83867583  0.27435898  0.02097900     0.38990
H121        H  0.19954289  0.19522445  0.98056754     0.43910
H122        H  0.92058555  0.12857820  0.00505793     0.42630
H123        H  0.83956290  0.30880808  0.99822227     0.42770
H124        H  0.11033136  0.35782222  0.99512836     0.43130
C125        C  0.76402572  0.12092610  0.72949095    -0.02940
O126        O  0.62286891  0.05733816  0.91266846    -0.75740
O127        O  0.58106611  0.03173696  0.84756825    -0.54650
C128        C  0.61457537  0.05239442  0.86496273     0.77990
O129        O  0.62302297  0.43209823  0.08074687    -0.60340
O130        O  0.58051817  0.45805407  0.14386788    -0.53370
C131        C  0.61404134  0.43763436  0.12799295     0.70000
O132        O  0.63114006  0.43775810  0.91447814    -0.74900
O133        O  0.58749882  0.45933001  0.84812089    -0.55470
C134        C  0.62422208  0.44226590  0.86647137     0.76000
O135        O  0.61783964  0.06222511  0.07972077    -0.60050
O136        O  0.57747687  0.03362381  0.14235848    -0.53170
C137        C  0.60902682  0.05565823  0.12674596     0.72600
Zr138      Zr  0.59163490  0.04286022  0.99612221     2.54710
O139        O  0.68443616  0.04797732  0.99927660    -0.80610
O140        O  0.57338210  0.09937596  0.99800839    -0.94030
Zr141      Zr  0.59701166  0.45008859  0.99729416     2.64680
O142        O  0.68991669  0.45525004  0.00124291    -0.98980
O143        O  0.59550115  0.39221893  0.99437176    -0.81040
O144        O  0.59580619  0.49608480  0.94589645    -0.84400
O145        O  0.59497635  0.49680930  0.04785133    -2.19110
O146        O  0.41420339  0.05648923  0.07318928    -0.67790
O147        O  0.45571479  0.03085839  0.13827703    -0.52360
C148        C  0.42190207  0.05046588  0.12060310     0.70980
O149        O  0.41364241  0.43502122  0.91263872    -0.60700
O150        O  0.45981552  0.45549698  0.84702337    -0.52680
C151        C  0.42257347  0.43798524  0.86503709     0.72780
O152        O  0.41488968  0.43242198  0.07743384    -0.72100
O153        O  0.45618039  0.45910861  0.14218024    -0.50770
C154        C  0.42127849  0.43941494  0.12478780     0.74160
O155        O  0.41272124  0.04867517  0.90578026    -0.67420
O156        O  0.46010823  0.02524829  0.84345597    -0.54620
C157        C  0.42283360  0.04263351  0.85882314     0.72550
Zr158      Zr  0.44458540  0.03853396  0.99125738     2.77540
O159        O  0.35147417  0.03476143  0.98982125    -0.98170
O160        O  0.45045322  0.09620614  0.98550370    -0.78990
Zr161      Zr  0.44972207  0.44592712  0.99517947     2.70070
O162        O  0.35744282  0.43744942  0.99599788    -0.80240
O163        O  0.46667998  0.38923485  0.99518857    -0.99330
Zr164      Zr  0.52246997  0.49277671  0.89046879     2.21500
Zr165      Zr  0.51935995  0.49474668  0.09904563     2.11130
O166        O  0.44552816  0.49291832  0.04400724    -2.48010
O167        O  0.44755295  0.49138340  0.94249852    -0.80030
O168        O  0.51708990  0.04116313  0.04605167    -0.72230
O169        O  0.52375898  0.44614641  0.94354803    -2.33190
O170        O  0.51924757  0.04063800  0.94100971    -2.29390
O171        O  0.52279592  0.44739814  0.04848289    -0.73990
H172        H  0.62511660  0.49789127  0.06941376     0.78010
H173        H  0.52452916  0.42711928  0.92286187     0.79090
H174        H  0.41452617  0.49257256  0.06376324     0.81320
H175        H  0.51851203  0.05912327  0.91923714     0.78930
H176        H  0.58290188  0.38663313  0.95967052     0.41960
H177        H  0.49187100  0.38635913  0.02316064     0.40930
H178        H  0.34330225  0.45901957  0.99260962     0.40610
H179        H  0.34218139  0.02255780  0.02077027     0.38540
H180        H  0.46585396  0.10311781  0.01848041     0.41680
H181        H  0.56021635  0.10440883  0.96348389     0.36460
H182        H  0.69661510  0.02722929  0.98682724     0.42580
H183        H  0.69756588  0.46674611  0.03353345     0.38990
H184        H  0.34002161  0.05663125  0.99685024     0.43910
H185        H  0.60728607  0.11012246  0.00024215     0.42630
H186        H  0.70190094  0.43338465  0.00733399     0.42770
H187        H  0.43481093  0.37928251  0.00823895     0.43130
C188        C  0.26153782  0.36973361  0.74049640    -0.02940
O189        O  0.93151253  0.04592732  0.60505974    -0.75740
O190        O  0.86633026  0.02587679  0.55553282    -0.54650
C191        C  0.88415771  0.04176626  0.59419767     0.77990
O192        O  0.09797281  0.05440563  0.39723269    -0.60340
O193        O  0.15788028  0.02162344  0.43057869    -0.53370
C194        C  0.14293456  0.04319460  0.39907565     0.70000
O195        O  0.93415596  0.05352062  0.38820173    -0.74900
O196        O  0.86932836  0.02806601  0.43055989    -0.55470
C197        C  0.88703240  0.04635530  0.39496690     0.76000
O198        O  0.09856109  0.04359870  0.60334869    -0.60050
O199        O  0.16263307  0.02075170  0.55979165    -0.53170
C200        C  0.14575420  0.03754615  0.59711109     0.72600
Zr201      Zr  0.01400782  0.03552071  0.57148978     2.54710
O202        O  0.01662129  0.09324921  0.56572630    -0.80610
O203        O  0.01781197  0.03866953  0.66446984    -0.94030
Zr204      Zr  0.01475325  0.04107246  0.42603508     2.64680
O205        O  0.01331487  0.09817236  0.44074827    -0.98980
O206        O  0.01985375  0.04654962  0.33381102    -0.81040
O207        O  0.96159853  0.04058470  0.49827461    -0.84400
O208        O  0.06730349  0.03894947  0.49956356    -2.19110
O209        O  0.09049521  0.43346834  0.60022608    -0.67790
O210        O  0.15667271  0.45665365  0.55703987    -0.52360
C211        C  0.13816212  0.43893701  0.59259533     0.70980
O212        O  0.92583560  0.43898325  0.37968330    -0.60700
O213        O  0.86396804  0.46074778  0.42937064    -0.52680
C214        C  0.87924849  0.44469406  0.39043240     0.72780
O215        O  0.09303620  0.43793780  0.38500355    -0.72100
O216        O  0.15719615  0.45432875  0.43854115    -0.50770
C217        C  0.13991775  0.43907480  0.39910377     0.74160
O218        O  0.92326974  0.43258113  0.59607050    -0.67420
O219        O  0.86204807  0.45920571  0.55144745    -0.54620
C220        C  0.87693656  0.44043596  0.58726415     0.72550
Zr221      Zr  0.00763617  0.44188917  0.56282832     2.77540
O222        O  0.00207063  0.38570826  0.54057259    -0.98170
O223        O  0.00620676  0.42613487  0.65224875    -0.78990
Zr224      Zr  0.00920033  0.44764789  0.41664138     2.70070
O225        O  0.00344477  0.39015556  0.42547961    -0.80240
O226        O  0.00637417  0.44385579  0.32370298    -0.99330
Zr227      Zr  0.91030789  0.49304476  0.49283387     2.21500
Zr228      Zr  0.11318723  0.49028008  0.49575829     2.11130
O229        O  0.06094373  0.44285500  0.49056701    -2.48010
O230        O  0.95575375  0.44429473  0.48877967    -0.80030
O231        O  0.05997304  0.48799959  0.56908291    -0.72230
O232        O  0.96329215  0.49494115  0.41950616    -2.33190
O233        O  0.96196876  0.48946601  0.56814206    -2.29390
O234        O  0.06163905  0.49377127  0.42066442    -0.73990
H235        H  0.09018263  0.05719101  0.50169268     0.78010
H236        H  0.94373151  0.49595928  0.38820128     0.79090
H237        H  0.08156499  0.42406155  0.48918686     0.81320
H238        H  0.94186134  0.48895753  0.59883664     0.78930
H239        H  0.02535155  0.02466101  0.32127297     0.41960
H240        H  0.03332190  0.45874928  0.31154626     0.40930
H241        H  0.96636842  0.38532527  0.42801753     0.40610
H242        H  0.03618701  0.38029327  0.52747594     0.38540
H243        H  0.00311124  0.44636037  0.67130528     0.41680
H244        H  0.99226869  0.02283782  0.67662337     0.36460
H245        H  0.98195517  0.09898563  0.55383846     0.42580
H246        H  0.04758904  0.10360967  0.45490991     0.38990
H247        H  0.99969303  0.37464258  0.57382073     0.43910
H248        H  0.00345962  0.05957730  0.67329693     0.42630
H249        H  0.01336471  0.10748553  0.40604513     0.42770
H250        H  0.01902337  0.42243752  0.31546640     0.43130
C251        C  0.76225190  0.36137111  0.25258041    -0.02940
C252        C  0.26614615  0.11233327  0.24971994    -0.02940
C253        C  0.76035668  0.12311162  0.25963158    -0.02940
C254        C  0.26822673  0.37108272  0.25215851    -0.02940
C255        C  0.26491299  0.11335016  0.74526068    -0.02940
C256        C  0.76961501  0.36610529  0.74137177    -0.02940
C257        C  0.23249624  0.08834139  0.71376829    -0.06570
C258        C  0.25888760  0.07116878  0.67532557    -0.17700
C259        C  0.23303099  0.05462730  0.63604007     0.10620
C260        C  0.17950380  0.05148311  0.63786175    -0.06500
C261        C  0.15461039  0.06297102  0.68149378    -0.17730
C262        C  0.17887887  0.08180057  0.71830096     0.10660
S263        S  0.27018521  0.04040016  0.58351083    -0.32700
S264        S  0.13843535  0.09275167  0.77142441    -0.32710
H265        H  0.09241546  0.09465148  0.74338524     0.28660
H266        H  0.24086383  0.05651293  0.54682645     0.28660
H267        H  0.29999042  0.07401464  0.67222456     0.19250
H268        H  0.11449742  0.05755370  0.68706215     0.19260
C269        C  0.17668735  0.05565236  0.35861467    -0.06570
C270        C  0.15298383  0.06638551  0.31355861    -0.17700
C271        C  0.18017559  0.08084179  0.27424366     0.10620
C272        C  0.23390314  0.08723063  0.28099645    -0.06500
C273        C  0.25732601  0.07039102  0.32167274    -0.17730
C274        C  0.23000011  0.05609589  0.36110553     0.10660
S275        S  0.14229905  0.08628026  0.21645277    -0.32700
S276        S  0.26580350  0.04052568  0.41429268    -0.32710
H277        H  0.23635412  0.05609654  0.45110618     0.28660
H278        H  0.18208524  0.08524145  0.18116445     0.28660
H279        H  0.11220832  0.06296600  0.30809467     0.19250
H280        H  0.29727993  0.06876443  0.32554896     0.19260
C281        C  0.84031499  0.42764132  0.62412756    -0.06570
C282        C  0.85110667  0.43305943  0.67593493    -0.17700
C283        C  0.82728390  0.41524546  0.71436699     0.10620
C284        C  0.79337244  0.38960898  0.70078392    -0.06500
C285        C  0.77778828  0.38815918  0.64832895    -0.17730
C286        C  0.80178304  0.40588162  0.61033032     0.10660
S287        S  0.84245516  0.42562429  0.77985282    -0.32700
S288        S  0.78526156  0.39725138  0.54468104    -0.32710
H289        H  0.78205969  0.42928183  0.53024721     0.28660
H290        H  0.88355933  0.44668793  0.77026148     0.28660
H291        H  0.87987958  0.45086069  0.68604695     0.19250
H292        H  0.74642206  0.37330508  0.63520186     0.19260
C293        C  0.23632470  0.39241783  0.28970226    -0.06570
C294        C  0.18420907  0.38380045  0.29705613    -0.17700
C295        C  0.15530806  0.39574479  0.33622185     0.10620
C296        C  0.17452299  0.42112204  0.36611812    -0.06500
C297        C  0.22580874  0.43005259  0.36140079    -0.17730
C298        C  0.25783782  0.41455052  0.32666984     0.10660
S299        S  0.09628216  0.37443995  0.34941134    -0.32700
S300        S  0.32558387  0.42223158  0.33516048    -0.32710
H301        H  0.32271455  0.44940677  0.36631313     0.28660
H302        H  0.10197992  0.37702270  0.40280624     0.28660
H303        H  0.16583715  0.36450207  0.27650927     0.19250
H304        H  0.24112807  0.44844641  0.38643845     0.19260
C305        C  0.84180936  0.42916926  0.35645153    -0.06570
C306        C  0.81162038  0.40566580  0.37817229    -0.17700
C307        C  0.78974462  0.38114771  0.34900064     0.10620
C308        C  0.79126602  0.38281109  0.29336714    -0.06500
C309        C  0.82185771  0.40754410  0.27260107    -0.17730
C310        C  0.84687736  0.43022740  0.30304891     0.10660
S311        S  0.76930804  0.34925569  0.39148243    -0.32700
S312        S  0.88506260  0.46006655  0.27145108    -0.32710
H313        H  0.88150455  0.48228447  0.31130281     0.28660
H314        H  0.77114758  0.32279136  0.36018852     0.28660
H315        H  0.81058798  0.40424724  0.41959088     0.19250
H316        H  0.82541187  0.40973191  0.23156900     0.19260
C317        C  0.85168399  0.06196540  0.35993977    -0.06570
C318        C  0.81537512  0.08113132  0.38181529    -0.17700
C319        C  0.79108323  0.10438649  0.35322049     0.10620
C320        C  0.79317099  0.10341776  0.29811822    -0.06500
C321        C  0.83124033  0.08406531  0.27694341    -0.17730
C322        C  0.86149599  0.06443438  0.30713526     0.10660
S323        S  0.77433428  0.13828079  0.39173473    -0.32700
S324        S  0.91200857  0.04261493  0.27719777    -0.32710
H325        H  0.90870226  0.05680575  0.22870966     0.28660
H326        H  0.75583316  0.12077804  0.43368494     0.28660
H327        H  0.81256224  0.08143725  0.42313787     0.19250
H328        H  0.83634661  0.08358139  0.23604487     0.19260
C329        C  0.17232827  0.42263188  0.62806087    -0.06570
C330        C  0.20407173  0.44042744  0.66117582    -0.17700
C331        C  0.22766903  0.42607043  0.70363771     0.10620
C332        C  0.22559487  0.39205745  0.70845638    -0.06500
C333        C  0.18513470  0.37723254  0.68177921    -0.17730
C334        C  0.16191856  0.39065608  0.63977821     0.10660
S335        S  0.24671261  0.45357379  0.75381247    -0.32700
S336        S  0.11777339  0.36559885  0.60392637    -0.32710
H337        H  0.12855358  0.37972684  0.55647453     0.28660
H338        H  0.23499007  0.43325647  0.79458437     0.28660
H339        H  0.20606362  0.46605383  0.65706296     0.19250
H340        H  0.16882830  0.35554819  0.69559300     0.19260
C341        C  0.64139911  0.07346023  0.16458816    -0.06570
C342        C  0.67189227  0.05583587  0.19711490    -0.17700
C343        C  0.71167950  0.06915362  0.22676200     0.10620
C344        C  0.72089361  0.10304240  0.22618210    -0.06500
C345        C  0.68810405  0.12083664  0.19370683    -0.17730
C346        C  0.64949634  0.10663225  0.16315424     0.10660
S347        S  0.74287228  0.04059766  0.26728419    -0.32700
S348        S  0.61141524  0.13230902  0.12372546    -0.32710
H349        H  0.56796623  0.11220405  0.12140861     0.28660
H350        H  0.74677019  0.01726814  0.22895719     0.28660
H351        H  0.66476265  0.03087051  0.19878498     0.19250
H352        H  0.69315188  0.14641532  0.19178311     0.19260
C353        C  0.30413712  0.09518062  0.21199932    -0.06570
C354        C  0.34872067  0.11241040  0.19621122    -0.17700
C355        C  0.38962039  0.09785190  0.17099576     0.10620
C356        C  0.38517444  0.06584818  0.15565375    -0.06500
C357        C  0.33836642  0.05024302  0.16322910    -0.17730
C358        C  0.29919357  0.06311187  0.19289191     0.10660
S359        S  0.44623814  0.12155369  0.15877432    -0.32700
S360        S  0.24449717  0.03692976  0.20235897    -0.32710
H361        H  0.26476192  0.00850115  0.18365956     0.28660
H362        H  0.48029624  0.09608510  0.15809981     0.28660
H363        H  0.35331109  0.13725588  0.20634503     0.19250
H364        H  0.33182626  0.02773337  0.14419887     0.19260
C365        C  0.38373796  0.42314649  0.15925804    -0.06570
C366        C  0.37209281  0.39098312  0.14936310    -0.17700
C367        C  0.33467985  0.37391305  0.17696899     0.10620
C368        C  0.30502528  0.38969885  0.21494032    -0.06500
C369        C  0.31210940  0.42306714  0.21838964    -0.17730
C370        C  0.35311927  0.43913774  0.19485624     0.10660
S371        S  0.33197980  0.33130922  0.16767842    -0.32700
S372        S  0.36515364  0.47952385  0.21445011    -0.32710
H373        H  0.38385047  0.48957710  0.16733663     0.28660
H374        H  0.36059430  0.33010462  0.12249381     0.28660
H375        H  0.39457475  0.37867065  0.12123901     0.19250
H376        H  0.28697345  0.43717360  0.24120503     0.19260
C377        C  0.66268789  0.42578470  0.83282231    -0.06570
C378        C  0.70210991  0.40898053  0.85747555    -0.17700
C379        C  0.73912766  0.39156576  0.83136394     0.10620
C380        C  0.73596610  0.38829704  0.77688387    -0.06500
C381        C  0.69903318  0.40783104  0.75227187    -0.17730
C382        C  0.66324632  0.42614059  0.77892194     0.10660
S383        S  0.79214831  0.37883880  0.87087320    -0.32700
S384        S  0.61987446  0.44940404  0.74140538    -0.32710
H385        H  0.63184738  0.47775351  0.76792496     0.28660
H386        H  0.76421633  0.37401183  0.91600384     0.28660
H387        H  0.70563733  0.41028111  0.89861537     0.19250
H388        H  0.69663358  0.40793451  0.71096521     0.19260
C389        C  0.30737853  0.09236025  0.77204291    -0.06570
C390        C  0.36029896  0.09633207  0.76014460    -0.17700
C391        C  0.39922616  0.07970238  0.78556783     0.10620
C392        C  0.38617521  0.05637842  0.82171050    -0.06500
C393        C  0.33450332  0.04894662  0.82876373    -0.17730
C394        C  0.29543072  0.06555308  0.80396035     0.10660
S395        S  0.46470724  0.09010196  0.77104631    -0.32700
S396        S  0.23120060  0.05236836  0.81824242    -0.32710
H397        H  0.24298747  0.02122732  0.83319478     0.28660
H398        H  0.48447728  0.08544652  0.82050070     0.28660
H399        H  0.37290527  0.11258760  0.73103470     0.19250
H400        H  0.32454399  0.03059716  0.85608705     0.19260
C401        C  0.64689520  0.41841858  0.16405715    -0.06570
C402        C  0.65845517  0.38714002  0.14991196    -0.17700
C403        C  0.69502977  0.36884457  0.17616046     0.10620
C404        C  0.72481914  0.38218381  0.21750290    -0.06500
C405        C  0.71164194  0.41370615  0.23181194    -0.17730
C406        C  0.67336768  0.43110029  0.20665379     0.10660
S407        S  0.70244717  0.32851171  0.15440710    -0.32700
S408        S  0.66108747  0.47004105  0.22966916    -0.32710
H409        H  0.66670227  0.48183982  0.17984565     0.28660
H410        H  0.65709322  0.32589958  0.12531597     0.28660
H411        H  0.63863590  0.37689057  0.11716306     0.19250
H412        H  0.72895865  0.42498010  0.26489472     0.19260
C413        C  0.38520345  0.41970500  0.83124652    -0.06570
C414        C  0.37844448  0.42727385  0.77963540    -0.17700
C415        C  0.34054361  0.41200480  0.74883585     0.10620
C416        C  0.30331085  0.39017307  0.77134314    -0.06500
C417        C  0.31096357  0.38347575  0.82358697    -0.17730
C418        C  0.35244259  0.39563224  0.85172370     0.10660
S419        S  0.34556813  0.42200095  0.68148017    -0.32700
S420        S  0.36361256  0.37605297  0.91203934    -0.32710
H421        H  0.41676398  0.37439674  0.90472547     0.28660
H422        H  0.31101207  0.40022047  0.65957525     0.28660
H423        H  0.40372997  0.44487841  0.76262993     0.19250
H424        H  0.28714596  0.36626229  0.84301830     0.19260
C425        C  0.85078820  0.05974385  0.62777163    -0.06570
C426        C  0.86551041  0.09144703  0.63492910    -0.17700
C427        C  0.84039560  0.11119549  0.66859152     0.10620
C428        C  0.79852552  0.09870527  0.69796862    -0.06500
C429        C  0.78954697  0.06540147  0.69591833    -0.17730
C430        C  0.81351769  0.04620914  0.65978532     0.10660
S431        S  0.85878349  0.15287654  0.66525436    -0.32700
S432        S  0.79650930  0.00466726  0.65818291    -0.32710
H433        H  0.79442276  0.50252349  0.60468921     0.28660
H434        H  0.88266150  0.15247887  0.61730270     0.28660
H435        H  0.89653674  0.10119891  0.61231833     0.19250
H436        H  0.76283087  0.05388679  0.72122291     0.19260
C437        C  0.72087344  0.10342445  0.76262567    -0.06570
C438        C  0.71587379  0.11157552  0.81479493    -0.17700
C439        C  0.67990870  0.09731387  0.84701422     0.10620
C440        C  0.64757230  0.07199265  0.82922069    -0.06500
C441        C  0.64822183  0.06562698  0.77664283    -0.17730
C442        C  0.68136438  0.08231794  0.74328827     0.10660
S443        S  0.67531695  0.11536247  0.90927781    -0.32700
S444        S  0.66772843  0.07647576  0.67679037    -0.32710
H445        H  0.64601379  0.10666348  0.67181369     0.28660
H446        H  0.62241911  0.11974952  0.90347051     0.28660
H447        H  0.73847596  0.13071871  0.83139643     0.19250
H448        H  0.62154003  0.04813752  0.76089995     0.19260
C449        C  0.15715671  0.17233575  0.15883295    -0.06570
C450        C  0.15241564  0.17054212  0.21205760    -0.17700
C451        C  0.18652204  0.15283956  0.24295702     0.10620
C452        C  0.22809935  0.13532281  0.22014434    -0.06500
C453        C  0.23392560  0.13946213  0.16723215    -0.17730
C454        C  0.20017758  0.15682305  0.13693990     0.10660
S455        S  0.17102463  0.15396423  0.31050152    -0.32700
S456        S  0.21674960  0.15874869  0.06995558    -0.32710
H457        H  0.24088964  0.12918034  0.06674842     0.28660
H458        H  0.21063115  0.13650680  0.33181242     0.28660
H459        H  0.12088262  0.18252821  0.22994416     0.19250
H460        H  0.26522783  0.12871944  0.14771561     0.19260
C461        C  0.15121913  0.31652048  0.16192850    -0.06570
C462        C  0.15681265  0.34954162  0.15656637    -0.17700
C463        C  0.19527947  0.36710066  0.18250405     0.10620
C464        C  0.23008470  0.35147590  0.21615176    -0.06500
C465        C  0.22552579  0.31777580  0.21859520    -0.17730
C466        C  0.18687258  0.30051223  0.19263905     0.10660
S467        S  0.19659709  0.40980988  0.17426175    -0.32700
S468        S  0.18688003  0.25784314  0.19839656    -0.32710
H469        H  0.17656027  0.25183381  0.14646821     0.28660
H470        H  0.15620544  0.41183805  0.13868734     0.28660
H471        H  0.13063475  0.36165198  0.13129341     0.19250
H472        H  0.25304617  0.30405916  0.23961701     0.19260
C473        C  0.88698511  0.31849273  0.15856767    -0.06570
C474        C  0.88229160  0.31067764  0.21018029    -0.17700
C475        C  0.84557922  0.32502776  0.24168294     0.10620
C476        C  0.80685650  0.34534801  0.22086582    -0.06500
C477        C  0.81586553  0.35524647  0.17009832    -0.17730
C478        C  0.85521726  0.34316439  0.13998686     0.10660
S479        S  0.85301955  0.31640786  0.30802898    -0.32700
S480        S  0.86459291  0.36275173  0.07945816    -0.32710
H481        H  0.91820716  0.36387703  0.08468900     0.28660
H482        H  0.88140692  0.34463392  0.31693421     0.28660
H483        H  0.90791919  0.29342184  0.22656748     0.19250
H484        H  0.79375331  0.37405092  0.15343269     0.19260
C485        C  0.14670214  0.31547079  0.82990816    -0.06570
C486        C  0.18993964  0.29997374  0.81203168    -0.17700
C487        C  0.23058528  0.31674586  0.78903538     0.10620
C488        C  0.22588852  0.34987270  0.77754077    -0.06500
C489        C  0.18402023  0.36538126  0.80008836    -0.17730
C490        C  0.14505016  0.34882927  0.82563842     0.10660
S491        S  0.28827017  0.29437476  0.78154477    -0.32700
S492        S  0.09477061  0.37200277  0.85326609    -0.32710
H493        H  0.05728202  0.34770109  0.85345325     0.28660
H494        H  0.32080138  0.31927628  0.79802143     0.28660
H495        H  0.19404011  0.27486731  0.81999796     0.19250
H496        H  0.18030850  0.39077766  0.79633079     0.19260
C497        C  0.88558069  0.30934377  0.82459167    -0.06570
C498        C  0.83313399  0.30355260  0.83116681    -0.17700
C499        C  0.79573806  0.32045392  0.80431449     0.10620
C500        C  0.81041442  0.34597499  0.77106805    -0.06500
C501        C  0.86387343  0.35031987  0.76309841    -0.17730
C502        C  0.90090244  0.33266187  0.78927493     0.10660
S503        S  0.72962857  0.31073327  0.81838418    -0.32700
S504        S  0.96712399  0.34285677  0.77886368    -0.32710
H505        H  0.98307878  0.31127387  0.77491189     0.28660
H506        H  0.73804559  0.28049776  0.83934145     0.28660
H507        H  0.82123304  0.28620417  0.85934853     0.19250
H508        H  0.87815089  0.36699449  0.73536412     0.19260
C509        C  0.23072185  0.13461288  0.78070308    -0.06570
C510        C  0.19521005  0.15493734  0.75533283    -0.17700
C511        C  0.15945175  0.17369866  0.78114219     0.10620
C512        C  0.15621662  0.17221753  0.83474417    -0.06500
C513        C  0.19342473  0.15392874  0.86033431    -0.17730
C514        C  0.23102440  0.13647369  0.83537709     0.10660
S515        S  0.11896425  0.19850450  0.74300843    -0.32700
S516        S  0.27568637  0.11857683  0.87946804    -0.32710
H517        H  0.32079618  0.12582892  0.85369537     0.28660
H518        H  0.13084752  0.22606418  0.77163282     0.28660
H519        H  0.19364006  0.15536071  0.71405660     0.19250
H520        H  0.19426686  0.15331164  0.90168071     0.19260
C521        C  0.88226321  0.17257294  0.16563373    -0.06570
C522        C  0.84706225  0.15097630  0.14310451    -0.17700
C523        C  0.80976652  0.13401911  0.17062924     0.10620
C524        C  0.80155022  0.14075441  0.22393572    -0.06500
C525        C  0.83986072  0.16074374  0.24707008    -0.17730
C526        C  0.87912638  0.17645512  0.21927412     0.10660
S527        S  0.78446578  0.09969175  0.13611319    -0.32700
S528        S  0.92462364  0.20019550  0.25518472    -0.32710
H529        H  0.96716901  0.18511110  0.23403310     0.28660
H530        H  0.78156307  0.11439676  0.08794044     0.28660
H531        H  0.85061116  0.14536040  0.10296242     0.19250
H532        H  0.83990467  0.16371250  0.28819330     0.19260
C533        C  0.80360768  0.13913457  0.76644263    -0.06570
C534        C  0.81175949  0.17260186  0.76429643    -0.17700
C535        C  0.85000077  0.18850456  0.79318323     0.10620
C536        C  0.88082491  0.17165983  0.82786118    -0.06500
C537        C  0.87223459  0.13881431  0.83210214    -0.17730
C538        C  0.83532731  0.12237534  0.80199039     0.10660
S539        S  0.85719507  0.23060410  0.78399502    -0.32700
S540        S  0.82885125  0.07987187  0.81140975    -0.32710
H541        H  0.86987221  0.07615512  0.84582459     0.28660
H542        H  0.86446371  0.23714083  0.83620769     0.28660
H543        H  0.79084795  0.18693119  0.73753813     0.19250
H544        H  0.89489741  0.12590170  0.85963023     0.19260
C545        C  0.67043966  0.31240164  0.63619156    -0.06570
C546        C  0.72243692  0.30498959  0.63779361    -0.17700
C547        C  0.75577079  0.31925235  0.67412136     0.10620
C548        C  0.73588306  0.34073406  0.71160712    -0.06500
C549        C  0.68254691  0.34131871  0.71599758    -0.17730
C550        C  0.65097738  0.33148762  0.67625837     0.10660
S551        S  0.82334235  0.31236763  0.66692439    -0.32700
S552        S  0.58880617  0.34932182  0.67665307    -0.32710
H553        H  0.59685441  0.36332379  0.62855849     0.28660
H554        H  0.81900605  0.28603704  0.63386697     0.28660
H555        H  0.73749296  0.28942934  0.60881489     0.19250
H556        H  0.66442165  0.35270153  0.74784090     0.19260
C557        C  0.34065130  0.17650045  0.63350725    -0.06570
C558        C  0.35080972  0.18038248  0.68572309    -0.17700
C559        C  0.32435347  0.16271496  0.72231239     0.10620
C560        C  0.28901728  0.13827807  0.70679068    -0.06500
C561        C  0.27309132  0.13924339  0.65453748    -0.17730
C562        C  0.29953399  0.15691161  0.61791309     0.10660
S563        S  0.33978527  0.17206258  0.78757610    -0.32700
S564        S  0.28064199  0.15193419  0.55189114    -0.32710
H565        H  0.33073172  0.15037363  0.53301975     0.28660
H566        H  0.29502696  0.18968840  0.79375466     0.28660
H567        H  0.38055290  0.19702646  0.69813428     0.19250
H568        H  0.24017470  0.12584372  0.64083853     0.19260
C569        C  0.67025547  0.18420541  0.36104830    -0.06570
C570        C  0.65374525  0.15334709  0.34970180    -0.17700
C571        C  0.68173173  0.13335587  0.31882212     0.10620
C572        C  0.72486478  0.14565678  0.29074831    -0.06500
C573        C  0.73626586  0.17853813  0.29705312    -0.17730
C574        C  0.71426908  0.19638688  0.33644500     0.10660
S575        S  0.66480761  0.09177340  0.32555166    -0.32700
S576        S  0.75127590  0.23035165  0.35866743    -0.32710
H577        H  0.71622052  0.24271442  0.39283023     0.28660
H578        H  0.61209683  0.09584309  0.33309524     0.28660
H579        H  0.62091803  0.14364535  0.36979036     0.19250
H580        H  0.76577030  0.19026604  0.27557489     0.19260
C581        C  0.29745426  0.34945234  0.29091724    -0.06570
C582        C  0.26698237  0.33049580  0.32488653    -0.17700
C583        C  0.28742549  0.31323671  0.36577173     0.10620
C584        C  0.34032764  0.31417241  0.37414827    -0.06500
C585        C  0.37030071  0.33398439  0.34250862    -0.17730
C586        C  0.35112516  0.35107855  0.30193796     0.10660
S587        S  0.24389814  0.29153896  0.40614633    -0.32700
S588        S  0.40009192  0.37481404  0.27032581    -0.32710
H589        H  0.42859080  0.38327940  0.31436153     0.28660
H590        H  0.26632315  0.30305694  0.45177035     0.28660
H591        H  0.22592982  0.32932207  0.32008355     0.19250
H592        H  0.41111654  0.33627167  0.34864935     0.19260
C593        C  0.66156180  0.30815976  0.35279309    -0.06570
C594        C  0.68635115  0.29056782  0.31534633    -0.17700
C595        C  0.71912951  0.30539407  0.27984430     0.10620
C596        C  0.72337830  0.33937450  0.28025135    -0.06500
C597        C  0.68738998  0.35592697  0.31017388    -0.17730
C598        C  0.65917122  0.34112681  0.34771171     0.10660
S599        S  0.75251984  0.27979506  0.23621726    -0.32700
S600        S  0.62573501  0.36636028  0.39163408    -0.32710
H601        H  0.63541275  0.34786812  0.43521876     0.28660
H602        H  0.72648356  0.25120620  0.24758609     0.28660
H603        H  0.67933170  0.26526318  0.31386588     0.19250
H604        H  0.68660899  0.38154779  0.31030079     0.19260
C605        C  0.67611128  0.18827972  0.63541923    -0.06570
C606        C  0.70809186  0.16749832  0.61075587    -0.17700
C607        C  0.73413881  0.14397867  0.63687084     0.10620
C608        C  0.73440205  0.14371597  0.69248253    -0.06500
C609        C  0.70267915  0.16622330  0.71652642    -0.17730
C610        C  0.67392405  0.18815135  0.68899331     0.10660
S611        S  0.75864115  0.11570241  0.59103525    -0.32700
S612        S  0.63574197  0.21574925  0.72432083    -0.32710
H613        H  0.63592187  0.23955125  0.68664340     0.28660
H614        H  0.74195893  0.08771182  0.61378106     0.28660
H615        H  0.70800395  0.16727459  0.56924508     0.19250
H616        H  0.70059524  0.16699662  0.75779963     0.19260
C617        C  0.34923344  0.31890108  0.62259066    -0.06570
C618        C  0.29650082  0.31352704  0.62441300    -0.17700
C619        C  0.26685344  0.32518847  0.66482431     0.10620
C620        C  0.28992179  0.34654755  0.70221537    -0.06500
C621        C  0.34391302  0.34617289  0.70374588    -0.17730
C622        C  0.37291081  0.33530009  0.66376927     0.10660
S623        S  0.20629252  0.30426616  0.67308893    -0.32700
S624        S  0.44022244  0.34423848  0.66915220    -0.32710
H625        H  0.43724839  0.36822197  0.63194577     0.28660
H626        H  0.21069622  0.28115691  0.63454774     0.28660
H627        H  0.27884753  0.29869976  0.59512938     0.19250
H628        H  0.36551392  0.35516253  0.73604765     0.19260
C629        C  0.29997440  0.13300003  0.28861012    -0.06570
C630        C  0.29192395  0.16626074  0.29386310    -0.17700
C631        C  0.31174115  0.18409116  0.33481380     0.10620
C632        C  0.34131514  0.16909974  0.37229374    -0.06500
C633        C  0.35392286  0.13733399  0.36511648    -0.17730
C634        C  0.33983918  0.12077797  0.32101596     0.10660
S635        S  0.30032537  0.22618641  0.33515712    -0.32700
S636        S  0.38688380  0.09072588  0.30538453    -0.32710
H637        H  0.35989500  0.06882494  0.27514015     0.28660
H638        H  0.35095917  0.23516723  0.34732015     0.28660
H639        H  0.27098736  0.17947465  0.26567594     0.19250
H640        H  0.38175317  0.12679308  0.39069393     0.19260
O641        O  0.42249118  0.68190363  0.40010870    -0.75740
O642        O  0.35708055  0.70648012  0.44039888    -0.54650
C643        C  0.37501649  0.68708120  0.40722602     0.77990
O644        O  0.59083170  0.69906097  0.61646653    -0.60340
O645        O  0.65243726  0.71636545  0.56114903    -0.53370
C646        C  0.63755077  0.70323035  0.60299784     0.70000
O647        O  0.42401743  0.68661619  0.60775071    -0.74900
O648        O  0.35951657  0.70785195  0.56016250    -0.55470
C649        C  0.37662153  0.69122924  0.59762007     0.76000
O650        O  0.58885466  0.69979761  0.38316544    -0.60050
O651        O  0.65337638  0.71331529  0.43835447    -0.53170
C652        C  0.63639382  0.70134135  0.39605328     0.72600
Zr653      Zr  0.50779838  0.69585247  0.42747593     2.54710
O654        O  0.52180290  0.63979674  0.44413804    -0.80610
O655        O  0.50525647  0.67876814  0.33831364    -0.94030
Zr656      Zr  0.50804056  0.69853951  0.57415618     2.64680
O657        O  0.51670891  0.64207727  0.55675502    -0.98980
O658        O  0.50745766  0.68274714  0.66360506    -0.81040
O659        O  0.45499803  0.69514908  0.50069284    -0.84400
O660        O  0.56081466  0.69730629  0.50092081    -2.19110
O661        O  0.58118529  0.79555709  0.37913244    -0.67790
O662        O  0.64714286  0.77929085  0.42992494    -0.52360
C663        C  0.62843031  0.79253030  0.38949810     0.70980
O664        O  0.42312772  0.81597077  0.57289289    -0.60700
O665        O  0.36344803  0.77711268  0.56175511    -0.52680
C666        C  0.37990208  0.80315539  0.58287009     0.72780
O667        O  0.58850191  0.80192496  0.60424936    -0.72100
O668        O  0.65372065  0.78181746  0.55872122    -0.50770
C669        C  0.63596765  0.79796934  0.59655642     0.74160
O670        O  0.41731333  0.79786783  0.40599843    -0.67420
O671        O  0.35013893  0.77505219  0.44371563    -0.54620
C672        C  0.36953927  0.79442173  0.41105371     0.72550
Zr673      Zr  0.50364896  0.78860308  0.42363149     2.77540
O674        O  0.50385985  0.84639773  0.42763411    -0.98170
O675        O  0.49205820  0.79284353  0.33153215    -0.78990
Zr676      Zr  0.50508567  0.79145060  0.57023157     2.70070
O677        O  0.51685175  0.84880880  0.57527943    -0.80240
O678        O  0.49311553  0.78231810  0.66142975    -0.99330
Zr679      Zr  0.40324833  0.74189710  0.49908961     2.21500
Zr680      Zr  0.60756067  0.74706995  0.49760445     2.11130
O681        O  0.55672708  0.79349663  0.49658219    -2.48010
O682        O  0.45283630  0.78992120  0.49669617    -0.80030
O683        O  0.55476099  0.74367032  0.42397741    -0.72230
O684        O  0.45575880  0.74410588  0.57439572    -2.33190
O685        O  0.45505241  0.74100694  0.42366243    -2.29390
O686        O  0.55603619  0.74636384  0.57168803    -0.73990
H687        H  0.58369611  0.67953425  0.50174378     0.78010
H688        H  0.43525907  0.74488585  0.60484411     0.79090
H689        H  0.57777058  0.81257288  0.49580365     0.81320
H690        H  0.43449682  0.74026246  0.39286137     0.78930
H691        H  0.49819626  0.70216177  0.68258055     0.41960
H692        H  0.50332188  0.76004306  0.66685724     0.40930
H693        H  0.50441246  0.85673425  0.54192726     0.40610
H694        H  0.53376310  0.85251453  0.44906015     0.38540
H695        H  0.49040386  0.77054927  0.31935126     0.41680
H696        H  0.48074844  0.69299604  0.32115259     0.36460
H697        H  0.48721291  0.62989224  0.44219855     0.42580
H698        H  0.54936747  0.63641476  0.57353883     0.38990
H699        H  0.51282202  0.85332579  0.39267536     0.43910
H700        H  0.48819298  0.65757609  0.33818792     0.42630
H701        H  0.49003499  0.63168131  0.57785474     0.42770
H702        H  0.52044239  0.79491162  0.67875039     0.43130
O703        O  0.90960887  0.68096905  0.91220203    -0.75740
O704        O  0.95302866  0.70667710  0.84843728    -0.54650
C705        C  0.91727073  0.68756035  0.86481262     0.77990
O706        O  0.91214619  0.80325248  0.07615814    -0.60340
O707        O  0.95696021  0.78137290  0.14186458    -0.53370
C708        C  0.92166554  0.79994397  0.12385920     0.70000
O709        O  0.91067789  0.79994251  0.90887547    -0.74900
O710        O  0.95738894  0.77629149  0.84635885    -0.55470
C711        C  0.92105240  0.79441761  0.86183822     0.76000
O712        O  0.91350273  0.68266043  0.08231486    -0.60050
O713        O  0.95483187  0.70913817  0.14676945    -0.53170
C714        C  0.91993456  0.68927862  0.13009729     0.72600
Zr715      Zr  0.94383829  0.69467677  0.99660386     2.54710
O716        O  0.85088567  0.69100498  0.99746014    -0.80610
O717        O  0.95515322  0.63739428  0.99801360    -0.94030
Zr718      Zr  0.94259052  0.78755365  0.99353018     2.64680
O719        O  0.84941705  0.78669808  0.99063747    -0.98980
O720        O  0.95307907  0.84514547  0.99090556    -0.81040
O721        O  0.94309883  0.74047270  0.94446149    -0.84400
O722        O  0.94314901  0.74182471  0.04600445    -2.19110
O723        O  0.12106471  0.68236776  0.07849668    -0.68110
O724        O  0.08404844  0.70880675  0.14376060    -0.52360
C725        C  0.11767248  0.68906953  0.12577643     0.70980
O726        O  0.12062102  0.80561032  0.91286136    -0.60700
O727        O  0.07962835  0.77741622  0.84916119    -0.52680
C728        C  0.11295589  0.79824042  0.86583157     0.72780
O729        O  0.12140045  0.80669403  0.07941133    -0.72100
O730        O  0.08141312  0.77931286  0.14362379    -0.50770
C731        C  0.11505400  0.79966118  0.12662565     0.74160
O732        O  0.12268336  0.68340312  0.91516563    -0.67420
O733        O  0.08206659  0.70726841  0.84912274    -0.54620
C734        C  0.11723469  0.68889737  0.86745502     0.72550
Zr735      Zr  0.09135645  0.69891563  0.99668023     2.77540
O736        O  0.18134827  0.71457411  0.99099621    -0.98170
O737        O  0.10070794  0.64149308  0.99652118    -0.78990
Zr738      Zr  0.08931449  0.79121970  0.99613822     2.70070
O739        O  0.18233914  0.79513411  0.99733890    -0.80240
O740        O  0.07547227  0.84825450  0.99506962    -0.99330
Zr741      Zr  0.01759006  0.74145875  0.89192784     2.21500
Zr742      Zr  0.01770379  0.74350852  0.10087049     2.11130
O743        O  0.09146326  0.74510887  0.04747551    -2.48010
O744        O  0.09140126  0.74460150  0.94557990    -0.80030
O745        O  0.01805184  0.69609492  0.04916887    -0.72230
O746        O  0.01629423  0.78934401  0.94219449    -2.33190
O747        O  0.01755884  0.69476952  0.94444264    -2.29390
O748        O  0.01565283  0.79027362  0.04789001    -0.73990
H749        H  0.91244817  0.74187952  0.06621562     0.78010
H750        H  0.01589403  0.80785636  0.92047117     0.79090
H751        H  0.12236209  0.74560109  0.06787055     0.81320
H752        H  0.01826748  0.67574251  0.92374662     0.78930
H753        H  0.95832812  0.85036082  0.95444752     0.41960
H754        H  0.06197269  0.85317372  0.02936486     0.40930
H755        H  0.19355131  0.77862263  0.97308255     0.40610
H756        H  0.19296878  0.71907935  0.02638921     0.38540
H757        H  0.06808517  0.63319412  0.01053780     0.41680
H758        H  0.96159420  0.63149239  0.96202847     0.36460
H759        H  0.83966819  0.71248283  0.98749809     0.42580
H760        H  0.83867584  0.77435900  0.02097898     0.38990
H761        H  0.19954289  0.69522445  0.98056755     0.43910
H762        H  0.92058556  0.62857822  0.00505799     0.42630
H763        H  0.83956293  0.80880811  0.99822230     0.42770
H764        H  0.11033139  0.85782222  0.99512833     0.43130
C765        C  0.76402571  0.62092612  0.72949096    -0.02940
O766        O  0.62286893  0.55733818  0.91266853    -0.75740
O767        O  0.58106614  0.53173698  0.84756832    -0.54650
C768        C  0.61457540  0.55239444  0.86496280     0.77990
O769        O  0.62302295  0.93209826  0.08074683    -0.60340
O770        O  0.58051817  0.95805409  0.14386785    -0.53370
C771        C  0.61404134  0.93763439  0.12799291     0.70000
O772        O  0.63114005  0.93775809  0.91447809    -0.74900
O773        O  0.58749882  0.95933001  0.84812085    -0.55470
C774        C  0.62422208  0.94226590  0.86647133     0.76000
O775        O  0.61783962  0.56222513  0.07972088    -0.60050
O776        O  0.57747686  0.53362380  0.14235857    -0.53170
C777        C  0.60902680  0.55565823  0.12674607     0.72600
Zr778      Zr  0.59163492  0.54286024  0.99612229     2.54710
O779        O  0.68443619  0.54797733  0.99927670    -0.80610
O780        O  0.57338215  0.59937598  0.99800848    -0.94030
Zr781      Zr  0.59701163  0.95008858  0.99729411     2.64680
O782        O  0.68991666  0.95524998  0.00124284    -0.98980
O783        O  0.59550105  0.89221891  0.99437173    -0.81040
O784        O  0.59580617  0.99608478  0.94589639    -0.84400
O785        O  0.59497633  0.99680929  0.04785126    -2.19110
O786        O  0.41420341  0.55648923  0.07318932    -0.67790
O787        O  0.45571479  0.53085837  0.13827707    -0.52360
C788        C  0.42190208  0.55046588  0.12060313     0.70980
O789        O  0.41364238  0.93502121  0.91263868    -0.60700
O790        O  0.45981550  0.95549696  0.84702333    -0.52680
C791        C  0.42257345  0.93798522  0.86503706     0.72780
O792        O  0.41488967  0.93242198  0.07743381    -0.72100
O793        O  0.45618038  0.95910862  0.14218020    -0.50770
C794        C  0.42127848  0.93941495  0.12478777     0.74160
O795        O  0.41272125  0.54867517  0.90578031    -0.67420
O796        O  0.46010826  0.52524830  0.84345602    -0.54620
C797        C  0.42283361  0.54263351  0.85882319     0.72550
Zr798      Zr  0.44458542  0.53853396  0.99125743     2.77540
O799        O  0.35147419  0.53476143  0.98982130    -0.98170
O800        O  0.45045324  0.59620614  0.98550375    -0.78990
Zr801      Zr  0.44972204  0.94592712  0.99517943     2.70070
O802        O  0.35744278  0.93744944  0.99599784    -0.80240
O803        O  0.46667993  0.88923485  0.99518856    -0.99330
Zr804      Zr  0.52246994  0.99277670  0.89046873     2.21500
Zr805      Zr  0.51935994  0.99474668  0.09904558     2.11130
O806        O  0.44552813  0.99291833  0.04400720    -2.48010
O807        O  0.44755293  0.99138340  0.94249848    -0.80030
O808        O  0.51708991  0.54116313  0.04605173    -0.72230
O809        O  0.52375894  0.94614640  0.94354799    -2.33190
O810        O  0.51924760  0.54063802  0.94100978    -2.29390
O811        O  0.52279589  0.94739814  0.04848285    -0.73990
H812        H  0.62511658  0.99789127  0.06941369     0.78010
H813        H  0.52452912  0.92711927  0.92286183     0.79090
H814        H  0.41452615  0.99257257  0.06376320     0.81320
H815        H  0.51851206  0.55912328  0.91923721     0.78930
H816        H  0.58290188  0.88663311  0.95967045     0.41960
H817        H  0.49187093  0.88635913  0.02316064     0.40930
H818        H  0.34330223  0.95901959  0.99260956     0.40610
H819        H  0.34218141  0.52255780  0.02077032     0.38540
H820        H  0.46585398  0.60311781  0.01848045     0.41680
H821        H  0.56021640  0.60440885  0.96348397     0.36460
H822        H  0.69661512  0.52722931  0.98682728     0.42580
H823        H  0.69756586  0.96674608  0.03353335     0.38990
H824        H  0.34002163  0.55663125  0.99685029     0.43910
H825        H  0.60728612  0.61012248  0.00024224     0.42630
H826        H  0.70190088  0.93338459  0.00733400     0.42770
H827        H  0.43481086  0.87928252  0.00823893     0.43130
C828        C  0.26153780  0.86973359  0.74049637    -0.02940
O829        O  0.93151250  0.54592735  0.60505971    -0.75740
O830        O  0.86633023  0.52587678  0.55553281    -0.54650
C831        C  0.88415768  0.54176627  0.59419765     0.77990
O832        O  0.09797278  0.55440553  0.39723261    -0.60340
O833        O  0.15788029  0.52162341  0.43057871    -0.53370
C834        C  0.14293455  0.54319454  0.39907562     0.70000
O835        O  0.93415601  0.55352049  0.38820164    -0.74900
O836        O  0.86932837  0.52806594  0.43055983    -0.55470
C837        C  0.88703244  0.54635519  0.39496680     0.76000
O838        O  0.09856107  0.54359872  0.60334869    -0.60050
O839        O  0.16263305  0.52075170  0.55979168    -0.53170
C840        C  0.14575418  0.53754616  0.59711110     0.72600
Zr841      Zr  0.01400780  0.53552072  0.57148977     2.54710
O842        O  0.01662128  0.59324922  0.56572623    -0.80610
O843        O  0.01781194  0.53866957  0.66446983    -0.94030
Zr844      Zr  0.01475325  0.54107241  0.42603509     2.64680
O845        O  0.01331485  0.59817230  0.44074835    -0.98980
O846        O  0.01985373  0.54654967  0.33381104    -0.81040
O847        O  0.96159851  0.54058468  0.49827459    -0.84400
O848        O  0.06730349  0.53894945  0.49956356    -2.19110
O849        O  0.09049523  0.93346830  0.60022599    -0.67790
O850        O  0.15667271  0.95665366  0.55703982    -0.52360
C851        C  0.13816213  0.93893699  0.59259526     0.70980
O852        O  0.92583561  0.93898335  0.37968318    -0.60700
O853        O  0.86396806  0.96074784  0.42937058    -0.52680
C854        C  0.87924850  0.94469415  0.39043231     0.72780
O855        O  0.09303621  0.93793785  0.38500349    -0.72100
O856        O  0.15719615  0.95432877  0.43854111    -0.50770
C857        C  0.13991776  0.93907483  0.39910373     0.74160
O858        O  0.92326975  0.93258109  0.59607039    -0.67420
O859        O  0.86204808  0.95920572  0.55144741    -0.54620
C860        C  0.87693658  0.94043595  0.58726407     0.72550
Zr861      Zr  0.00763619  0.94188916  0.56282823     2.77540
O862        O  0.00207067  0.88570825  0.54057250    -0.98170
O863        O  0.00620675  0.92613488  0.65224868    -0.78990
Zr864      Zr  0.00920033  0.94764795  0.41664130     2.70070
O865        O  0.00344472  0.89015562  0.42547951    -0.80240
O866        O  0.00637420  0.94385584  0.32370289    -0.99330
Zr867      Zr  0.91030790  0.99304479  0.49283385     2.21500
Zr868      Zr  0.11318723  0.99028010  0.49575825     2.11130
O869        O  0.06094374  0.94285502  0.49056693    -2.48010
O870        O  0.95575376  0.94429475  0.48877960    -0.80030
O871        O  0.05997306  0.98799958  0.56908288    -0.72230
O872        O  0.96329215  0.99494121  0.41950613    -2.33190
O873        O  0.96196878  0.98946600  0.56814203    -2.29390
O874        O  0.06163906  0.99377133  0.42066438    -0.73990
H875        H  0.09018263  0.55719099  0.50169265     0.78010
H876        H  0.94373149  0.99595937  0.38820126     0.79090
H877        H  0.08156499  0.92406157  0.48918675     0.81320
H878        H  0.94186136  0.98895750  0.59883661     0.78930
H879        H  0.02535157  0.52466108  0.32127293     0.41960
H880        H  0.03332195  0.95874932  0.31154618     0.40930
H881        H  0.96636836  0.88532534  0.42801741     0.40610
H882        H  0.03618705  0.88029327  0.52747584     0.38540
H883        H  0.00311122  0.94636038  0.67130519     0.41680
H884        H  0.99226866  0.52283787  0.67662337     0.36460
H885        H  0.98195514  0.59898564  0.55383844     0.42580
H886        H  0.04758910  0.60360963  0.45490977     0.38990
H887        H  0.99969309  0.87464257  0.57382064     0.43910
H888        H  0.00345959  0.55957734  0.67329690     0.42630
H889        H  0.01336445  0.60748548  0.40604522     0.42770
H890        H  0.01902339  0.92243757  0.31546633     0.43130
C891        C  0.76225190  0.86137117  0.25258038    -0.02940
C892        C  0.26614613  0.61233325  0.24971995    -0.02940
C893        C  0.76035691  0.62311154  0.25963155    -0.02940
C894        C  0.26822674  0.87108272  0.25215850    -0.02940
C895        C  0.26491300  0.61335015  0.74526069    -0.02940
C896        C  0.76961504  0.86610530  0.74137176    -0.02940
C897        C  0.23249625  0.58834139  0.71376830    -0.06570
C898        C  0.25888760  0.57116877  0.67532559    -0.17700
C899        C  0.23303098  0.55462730  0.63604008     0.10620
C900        C  0.17950378  0.55148312  0.63786175    -0.06500
C901        C  0.15461038  0.56297104  0.68149379    -0.17730
C902        C  0.17887887  0.58180057  0.71830097     0.10660
S903        S  0.27018519  0.54040015  0.58351085    -0.32700
S904        S  0.13843536  0.59275167  0.77142444    -0.32710
H905        H  0.09241547  0.59465150  0.74338527     0.28660
H906        H  0.24086382  0.55651292  0.54682646     0.28660
H907        H  0.29999042  0.57401462  0.67222458     0.19250
H908        H  0.11449741  0.55755373  0.68706215     0.19260
C909        C  0.17668735  0.55565230  0.35861464    -0.06570
C910        C  0.15298383  0.56638544  0.31355857    -0.17700
C911        C  0.18017559  0.58084175  0.27424365     0.10620
C912        C  0.23390313  0.58723060  0.28099646    -0.06500
C913        C  0.25732600  0.57039101  0.32167277    -0.17730
C914        C  0.23000010  0.55609586  0.36110554     0.10660
S915        S  0.14229907  0.58628022  0.21645274    -0.32700
S916        S  0.26580348  0.54052570  0.41429273    -0.32710
H917        H  0.23635407  0.55609656  0.45110619     0.28660
H918        H  0.18208528  0.58524143  0.18116444     0.28660
H919        H  0.11220833  0.56296590  0.30809460     0.19250
H920        H  0.29727993  0.56876443  0.32554902     0.19260
C921        C  0.84031502  0.92764131  0.62412749    -0.06570
C922        C  0.85110672  0.93305942  0.67593486    -0.17700
C923        C  0.82728396  0.91524546  0.71436694     0.10620
C924        C  0.79337248  0.88960898  0.70078389    -0.06500
C925        C  0.77778830  0.88815918  0.64832892    -0.17730
C926        C  0.80178305  0.90588161  0.61033028     0.10660
S927        S  0.84245528  0.92562428  0.77985276    -0.32700
S928        S  0.78526154  0.89725136  0.54468101    -0.32710
H929        H  0.78205974  0.92928181  0.53024715     0.28660
H930        H  0.88355909  0.94668819  0.77026140     0.28660
H931        H  0.87987967  0.95086066  0.68604685     0.19250
H932        H  0.74642206  0.87330509  0.63520186     0.19260
C933        C  0.23632471  0.89241784  0.28970225    -0.06570
C934        C  0.18420909  0.88380046  0.29705612    -0.17700
C935        C  0.15530806  0.89574481  0.33622183     0.10620
C936        C  0.17452300  0.92112206  0.36611809    -0.06500
C937        C  0.22580875  0.93005260  0.36140076    -0.17730
C938        C  0.25783783  0.91455053  0.32666983     0.10660
S939        S  0.09628216  0.87443998  0.34941133    -0.32700
S940        S  0.32558388  0.92223158  0.33516047    -0.32710
H941        H  0.32271457  0.94940677  0.36631314     0.28660
H942        H  0.10197990  0.87702275  0.40280623     0.28660
H943        H  0.16583717  0.86450207  0.27650927     0.19250
H944        H  0.24112807  0.94844643  0.38643842     0.19260
C945        C  0.84180937  0.92916934  0.35645146    -0.06570
C946        C  0.81162043  0.90566586  0.37817223    -0.17700
C947        C  0.78974469  0.88114776  0.34900059     0.10620
C948        C  0.79126606  0.88281115  0.29336709    -0.06500
C949        C  0.82185772  0.90754417  0.27260101    -0.17730
C950        C  0.84687734  0.93022749  0.30304884     0.10660
S951        S  0.76930815  0.84925574  0.39148240    -0.32700
S952        S  0.88506250  0.96006668  0.27145100    -0.32710
H953        H  0.88150443  0.98228461  0.31130272     0.28660
H954        H  0.77114748  0.82279141  0.36018846     0.28660
H955        H  0.81058806  0.90424730  0.41959082     0.19250
H956        H  0.82541185  0.90973198  0.23156894     0.19260
C957        C  0.85168410  0.56196529  0.35993964    -0.06570
C958        C  0.81537554  0.58113145  0.38181515    -0.17700
C959        C  0.79108412  0.60438676  0.35322028     0.10620
C960        C  0.79317145  0.60341774  0.29811803    -0.06500
C961        C  0.83124061  0.58406520  0.27694320    -0.17730
C962        C  0.86149614  0.56443420  0.30713511     0.10660
S963        S  0.77433710  0.63828169  0.39173401    -0.32700
S964        S  0.91200863  0.54261465  0.27719767    -0.32710
H965        H  0.90870231  0.55680539  0.22870950     0.28660
H966        H  0.75583602  0.62077959  0.43368494     0.28660
H967        H  0.81256282  0.58143754  0.42313774     0.19250
H968        H  0.83634681  0.58358123  0.23604466     0.19260
C969        C  0.17232828  0.92263186  0.62806080    -0.06570
C970        C  0.20407171  0.94042742  0.66117577    -0.17700
C971        C  0.22766900  0.92607041  0.70363767     0.10620
C972        C  0.22559487  0.89205743  0.70845632    -0.06500
C973        C  0.18513473  0.87723251  0.68177911    -0.17730
C974        C  0.16191860  0.89065606  0.63977810     0.10660
S975        S  0.24671256  0.95357376  0.75381244    -0.32700
S976        S  0.11777348  0.86559882  0.60392622    -0.32710
H977        H  0.12855366  0.87972684  0.55647440     0.28660
H978        H  0.23499002  0.93325644  0.79458434     0.28660
H979        H  0.20606359  0.96605381  0.65706294     0.19250
H980        H  0.16882835  0.85554815  0.69559287     0.19260
C981        C  0.64139910  0.57346022  0.16458830    -0.06570
C982        C  0.67189234  0.55583584  0.19711493    -0.17700
C983        C  0.71167965  0.56915355  0.22676196     0.10620
C984        C  0.72089371  0.60304234  0.22618218    -0.06500
C985        C  0.68810406  0.62083660  0.19370705    -0.17730
C986        C  0.64949630  0.60663224  0.16315448     0.10660
S987        S  0.74287277  0.54059752  0.26728373    -0.32700
S988        S  0.61141514  0.63230904  0.12372581    -0.32710
H989        H  0.56796618  0.61220403  0.12140886     0.28660
H990        H  0.74677039  0.51726806  0.22895659     0.28660
H991        H  0.66476278  0.53087047  0.19878490     0.19250
H992        H  0.69315186  0.64641529  0.19178340     0.19260
C993        C  0.30413710  0.59518061  0.21199932    -0.06570
C994        C  0.34872064  0.61241039  0.19621121    -0.17700
C995        C  0.38962036  0.59785189  0.17099576     0.10620
C996        C  0.38517444  0.56584817  0.15565378    -0.06500
C997        C  0.33836643  0.55024300  0.16322913    -0.17730
C998        C  0.29919357  0.56311184  0.19289193     0.10660
S999        S  0.44623809  0.62155370  0.15877430    -0.32700
S1000       S  0.24449719  0.53692972  0.20235901    -0.32710
H1001       H  0.26476195  0.50850111  0.18365958     0.28660
H1002       H  0.48029621  0.59608511  0.15809984     0.28660
H1003       H  0.35331104  0.63725588  0.20634500     0.19250
H1004       H  0.33182629  0.52773334  0.14419891     0.19260
C1005       C  0.38373796  0.92314650  0.15925802    -0.06570
C1006       C  0.37209282  0.89098313  0.14936309    -0.17700
C1007       C  0.33467987  0.87391306  0.17696899     0.10620
C1008       C  0.30502529  0.88969885  0.21494032    -0.06500
C1009       C  0.31210941  0.92306714  0.21838963    -0.17730
C1010       C  0.35311927  0.93913775  0.19485622     0.10660
S1011       S  0.33197982  0.83130923  0.16767843    -0.32700
S1012       S  0.36515362  0.97952386  0.21445005    -0.32710
H1013       H  0.38385043  0.98957711  0.16733656     0.28660
H1014       H  0.36059433  0.83010462  0.12249382     0.28660
H1015       H  0.39457477  0.87867065  0.12123901     0.19250
H1016       H  0.28697346  0.93717361  0.24120502     0.19260
C1017       C  0.66268791  0.92578472  0.83282227    -0.06570
C1018       C  0.70210998  0.90898058  0.85747551    -0.17700
C1019       C  0.73912772  0.89156581  0.83136392     0.10620
C1020       C  0.73596615  0.88829708  0.77688384    -0.06500
C1021       C  0.69903322  0.90783106  0.75227184    -0.17730
C1022       C  0.66324633  0.92614059  0.77892190     0.10660
S1023       S  0.79214839  0.87883887  0.87087317    -0.32700
S1024       S  0.61987440  0.94940399  0.74140533    -0.32710
H1025       H  0.63184730  0.97775349  0.76792486     0.28660
H1026       H  0.76421643  0.87401192  0.91600383     0.28660
H1027       H  0.70563741  0.91028118  0.89861533     0.19250
H1028       H  0.69663360  0.90793451  0.71096518     0.19260
C1029       C  0.30737854  0.59236025  0.77204292    -0.06570
C1030       C  0.36029897  0.59633206  0.76014462    -0.17700
C1031       C  0.39922617  0.57970238  0.78556787     0.10620
C1032       C  0.38617522  0.55637843  0.82171054    -0.06500
C1033       C  0.33450333  0.54894662  0.82876377    -0.17730
C1034       C  0.29543073  0.56555307  0.80396037     0.10660
S1035       S  0.46470725  0.59010196  0.77104634    -0.32700
S1036       S  0.23120061  0.55236835  0.81824242    -0.32710
H1037       H  0.24298749  0.52122731  0.83319481     0.28660
H1038       H  0.48447728  0.58544653  0.82050075     0.28660
H1039       H  0.37290529  0.61258759  0.73103472     0.19250
H1040       H  0.32454400  0.53059716  0.85608709     0.19260
C1041       C  0.64689521  0.91841863  0.16405712    -0.06570
C1042       C  0.65845519  0.88714007  0.14991191    -0.17700
C1043       C  0.69502980  0.86884462  0.17616040     0.10620
C1044       C  0.72481916  0.88218386  0.21750286    -0.06500
C1045       C  0.71164194  0.91370620  0.23181191    -0.17730
C1046       C  0.67336767  0.93110034  0.20665376     0.10660
S1047       S  0.70244724  0.82851179  0.15440699    -0.32700
S1048       S  0.66108744  0.97004109  0.22966914    -0.32710
H1049       H  0.66670226  0.98183987  0.17984564     0.28660
H1050       H  0.65709322  0.82589962  0.12531598     0.28660
H1051       H  0.63863594  0.87689062  0.11716301     0.19250
H1052       H  0.72895864  0.92498015  0.26489470     0.19260
C1053       C  0.38520342  0.91970499  0.83124649    -0.06570
C1054       C  0.37844446  0.92727384  0.77963537    -0.17700
C1055       C  0.34054359  0.91200479  0.74883582     0.10620
C1056       C  0.30331083  0.89017306  0.77134310    -0.06500
C1057       C  0.31096354  0.88347574  0.82358694    -0.17730
C1058       C  0.35244256  0.89563223  0.85172367     0.10660
S1059       S  0.34556810  0.92200094  0.68148014    -0.32700
S1060       S  0.36361253  0.87605296  0.91203931    -0.32710
H1061       H  0.41676395  0.87439673  0.90472544     0.28660
H1062       H  0.31101206  0.90022046  0.65957521     0.28660
H1063       H  0.40372994  0.94487840  0.76262990     0.19250
H1064       H  0.28714592  0.86626228  0.84301827     0.19260
C1065       C  0.85078817  0.55974387  0.62777160    -0.06570
C1066       C  0.86551037  0.59144705  0.63492907    -0.17700
C1067       C  0.84039557  0.61119551  0.66859150     0.10620
C1068       C  0.79852549  0.59870529  0.69796861    -0.06500
C1069       C  0.78954694  0.56540149  0.69591831    -0.17730
C1070       C  0.81351766  0.54620916  0.65978530     0.10660
S1071       S  0.85878346  0.65287656  0.66525434    -0.32700
S1072       S  0.79650927  0.50466728  0.65818289    -0.32710
H1073       H  0.79442282  0.00252347  0.60468923     0.28660
H1074       H  0.88266146  0.65247889  0.61730268     0.28660
H1075       H  0.89653669  0.60119893  0.61231830     0.19250
H1076       H  0.76283085  0.55388681  0.72122289     0.19260
C1077       C  0.72087343  0.60342447  0.76262570    -0.06570
C1078       C  0.71587380  0.61157554  0.81479496    -0.17700
C1079       C  0.67990874  0.59731388  0.84701426     0.10620
C1080       C  0.64757232  0.57199267  0.82922075    -0.06500
C1081       C  0.64822183  0.56562700  0.77664289    -0.17730
C1082       C  0.68136437  0.58231796  0.74328831     0.10660
S1083       S  0.67531702  0.61536248  0.90927787    -0.32700
S1084       S  0.66772839  0.57647578  0.67679042    -0.32710
H1085       H  0.64601378  0.60666351  0.67181374     0.28660
H1086       H  0.62241918  0.61974954  0.90347060     0.28660
H1087       H  0.73847598  0.63071873  0.83139645     0.19250
H1088       H  0.62154002  0.54813754  0.76090002     0.19260
C1089       C  0.15715671  0.67233575  0.15883297    -0.06570
C1090       C  0.15241561  0.67054210  0.21205762    -0.17700
C1091       C  0.18652201  0.65283954  0.24295704     0.10620
C1092       C  0.22809934  0.63532280  0.22014436    -0.06500
C1093       C  0.23392560  0.63946213  0.16723217    -0.17730
C1094       C  0.20017759  0.65682307  0.13693992     0.10660
S1095       S  0.17102458  0.65396418  0.31050153    -0.32700
S1096       S  0.21674964  0.65874874  0.06995562    -0.32710
H1097       H  0.24088968  0.62918039  0.06674843     0.28660
H1098       H  0.21063112  0.63650677  0.33181243     0.28660
H1099       H  0.12088259  0.68252818  0.22994417     0.19250
H1100       H  0.26522783  0.62871945  0.14771563     0.19260
C1101       C  0.15121915  0.81652049  0.16192850    -0.06570
C1102       C  0.15681266  0.84954163  0.15656637    -0.17700
C1103       C  0.19527948  0.86710066  0.18250405     0.10620
C1104       C  0.23008472  0.85147591  0.21615176    -0.06500
C1105       C  0.22552581  0.81777581  0.21859519    -0.17730
C1106       C  0.18687259  0.80051224  0.19263904     0.10660
S1107       S  0.19659710  0.90980988  0.17426175    -0.32700
S1108       S  0.18688005  0.75784315  0.19839655    -0.32710
H1109       H  0.17656028  0.75183382  0.14646820     0.28660
H1110       H  0.15620543  0.91183806  0.13868736     0.28660
H1111       H  0.13063476  0.86165199  0.13129341     0.19250
H1112       H  0.25304619  0.80405917  0.23961700     0.19260
C1113       C  0.88698511  0.81849275  0.15856766    -0.06570
C1114       C  0.88229155  0.81067763  0.21018027    -0.17700
C1115       C  0.84557916  0.82502775  0.24168291     0.10620
C1116       C  0.80685649  0.84534804  0.22086580    -0.06500
C1117       C  0.81586557  0.85524652  0.17009831    -0.17730
C1118       C  0.85521730  0.84316443  0.13998686     0.10660
S1119       S  0.85301943  0.81640780  0.30802894    -0.32700
S1120       S  0.86459300  0.86275178  0.07945818    -0.32710
H1121       H  0.91820725  0.86387705  0.08468904     0.28660
H1122       H  0.88140682  0.84463385  0.31693424     0.28660
H1123       H  0.90791909  0.79342181  0.22656745     0.19250
H1124       H  0.79375338  0.87405099  0.15343269     0.19260
C1125       C  0.14670215  0.81547078  0.82990815    -0.06570
C1126       C  0.18993967  0.79997373  0.81203170    -0.17700
C1127       C  0.23058530  0.81674586  0.78903540     0.10620
C1128       C  0.22588850  0.84987268  0.77754073    -0.06500
C1129       C  0.18402018  0.86538124  0.80008828    -0.17730
C1130       C  0.14505013  0.84882925  0.82563836     0.10660
S1131       S  0.28827021  0.79437477  0.78154481    -0.32700
S1132       S  0.09477055  0.87200274  0.85326600    -0.32710
H1133       H  0.05728199  0.84770105  0.85345320     0.28660
H1134       H  0.32080141  0.81927631  0.79802143     0.28660
H1135       H  0.19404017  0.77486731  0.81999803     0.19250
H1136       H  0.18030843  0.89077764  0.79633067     0.19260
C1137       C  0.88558070  0.80934377  0.82459167    -0.06570
C1138       C  0.83313401  0.80355263  0.83116684    -0.17700
C1139       C  0.79573808  0.82045395  0.80431452     0.10620
C1140       C  0.81041444  0.84597501  0.77106805    -0.06500
C1141       C  0.86387346  0.85031986  0.76309838    -0.17730
C1142       C  0.90090246  0.83266186  0.78927490     0.10660
S1143       S  0.72962858  0.81073333  0.81838425    -0.32700
S1144       S  0.96712402  0.84285673  0.77886361    -0.32710
H1145       H  0.98307877  0.81127382  0.77491181     0.28660
H1146       H  0.73804558  0.78049783  0.83934156     0.28660
H1147       H  0.82123305  0.78620421  0.85934858     0.19250
H1148       H  0.87815092  0.86699447  0.73536406     0.19260
C1149       C  0.23072186  0.63461288  0.78070309    -0.06570
C1150       C  0.19521006  0.65493734  0.75533285    -0.17700
C1151       C  0.15945176  0.67369866  0.78114220     0.10620
C1152       C  0.15621663  0.67221752  0.83474418    -0.06500
C1153       C  0.19342474  0.65392874  0.86033433    -0.17730
C1154       C  0.23102441  0.63647368  0.83537711     0.10660
S1155       S  0.11896427  0.69850450  0.74300844    -0.32700
S1156       S  0.27568637  0.61857683  0.87946806    -0.32710
H1157       H  0.32079619  0.62582891  0.85369540     0.28660
H1158       H  0.13084753  0.72606418  0.77163284     0.28660
H1159       H  0.19364008  0.65536071  0.71405661     0.19250
H1160       H  0.19426686  0.65331163  0.90168072     0.19260
C1161       C  0.88226323  0.67257298  0.16563372    -0.06570
C1162       C  0.84706246  0.65097621  0.14310453    -0.17700
C1163       C  0.80976667  0.63401905  0.17062924     0.10620
C1164       C  0.80155027  0.64075442  0.22393567    -0.06500
C1165       C  0.83986054  0.66074393  0.24707001    -0.17730
C1166       C  0.87912618  0.67645533  0.21927406     0.10660
S1167       S  0.78446583  0.59969172  0.13611321    -0.32700
S1168       S  0.92462310  0.70019598  0.25518462    -0.32710
H1169       H  0.96716868  0.68511156  0.23403345     0.28660
H1170       H  0.78156334  0.61439668  0.08794041     0.28660
H1171       H  0.85061152  0.64536021  0.10296249     0.19250
H1172       H  0.83990430  0.66371283  0.28819319     0.19260
C1173       C  0.80360768  0.63913459  0.76644263    -0.06570
C1174       C  0.81175949  0.67260187  0.76429643    -0.17700
C1175       C  0.85000077  0.68850457  0.79318324     0.10620
C1176       C  0.88082491  0.67165984  0.82786118    -0.06500
C1177       C  0.87223459  0.63881432  0.83210213    -0.17730
C1178       C  0.83532731  0.62237536  0.80199038     0.10660
S1179       S  0.85719505  0.73060412  0.78399506    -0.32700
S1180       S  0.82885126  0.57987189  0.81140973    -0.32710
H1181       H  0.86987221  0.57615513  0.84582457     0.28660
H1182       H  0.86446368  0.73714084  0.83620772     0.28660
H1183       H  0.79084795  0.68693121  0.73753814     0.19250
H1184       H  0.89489742  0.62590171  0.85963022     0.19260
C1185       C  0.67043963  0.81240166  0.63619160    -0.06570
C1186       C  0.72243689  0.80498961  0.63779362    -0.17700
C1187       C  0.75577078  0.81925236  0.67412136     0.10620
C1188       C  0.73588308  0.84073408  0.71160713    -0.06500
C1189       C  0.68254693  0.84131873  0.71599763    -0.17730
C1190       C  0.65097737  0.83148763  0.67625844     0.10660
S1191       S  0.82334233  0.81236764  0.66692437    -0.32700
S1192       S  0.58880614  0.84932181  0.67665321    -0.32710
H1193       H  0.59685433  0.86332381  0.62855865     0.28660
H1194       H  0.81900601  0.78603703  0.63386696     0.28660
H1195       H  0.73749291  0.78942937  0.60881489     0.19250
H1196       H  0.66442169  0.85270154  0.74784096     0.19260
C1197       C  0.34065132  0.67650045  0.63350727    -0.06570
C1198       C  0.35080973  0.68038248  0.68572311    -0.17700
C1199       C  0.32435348  0.66271495  0.72231241     0.10620
C1200       C  0.28901729  0.63827806  0.70679070    -0.06500
C1201       C  0.27309134  0.63924339  0.65453749    -0.17730
C1202       C  0.29953401  0.65691161  0.61791311     0.10660
S1203       S  0.33978528  0.67206257  0.78757612    -0.32700
S1204       S  0.28064202  0.65193418  0.55189115    -0.32710
H1205       H  0.33073176  0.65037364  0.53301977     0.28660
H1206       H  0.29502698  0.68968840  0.79375467     0.28660
H1207       H  0.38055290  0.69702646  0.69813431     0.19250
H1208       H  0.24017473  0.62584370  0.64083853     0.19260
C1209       C  0.67025608  0.68420497  0.36104905    -0.06570
C1210       C  0.65374645  0.65334643  0.34970327    -0.17700
C1211       C  0.68173274  0.63335537  0.31882318     0.10620
C1212       C  0.72486505  0.64565655  0.29074856    -0.06500
C1213       C  0.73626549  0.67853801  0.29705279    -0.17730
C1214       C  0.71426898  0.69638672  0.33644487     0.10660
S1215       S  0.66480929  0.59177281  0.32555282    -0.32700
S1216       S  0.75127562  0.73035173  0.35866661    -0.32710
H1217       H  0.71622062  0.74271431  0.39282999     0.28660
H1218       H  0.61209862  0.59584220  0.33309758     0.28660
H1219       H  0.62091978  0.64364449  0.36979248     0.19250
H1220       H  0.76576937  0.69026604  0.27557393     0.19260
C1221       C  0.29745427  0.84945235  0.29091724    -0.06570
C1222       C  0.26698237  0.83049580  0.32488653    -0.17700
C1223       C  0.28742548  0.81323671  0.36577173     0.10620
C1224       C  0.34032763  0.81417242  0.37414829    -0.06500
C1225       C  0.37030070  0.83398439  0.34250863    -0.17730
C1226       C  0.35112517  0.85107855  0.30193796     0.10660
S1227       S  0.24389812  0.79153896  0.40614632    -0.32700
S1228       S  0.40009193  0.87481404  0.27032581    -0.32710
H1229       H  0.42859081  0.88327940  0.31436153     0.28660
H1230       H  0.26632313  0.80305694  0.45177034     0.28660
H1231       H  0.22592983  0.82932207  0.32008354     0.19250
H1232       H  0.41111653  0.83627168  0.34864937     0.19260
C1233       C  0.66156175  0.80815986  0.35279308    -0.06570
C1234       C  0.68635096  0.79056793  0.31534622    -0.17700
C1235       C  0.71912937  0.80539416  0.27984422     0.10620
C1236       C  0.72337827  0.83937458  0.28025134    -0.06500
C1237       C  0.68739003  0.85592708  0.31017392    -0.17730
C1238       C  0.65917126  0.84112692  0.34771178     0.10660
S1239       S  0.75251966  0.77979514  0.23621718    -0.32700
S1240       S  0.62573515  0.86636039  0.39163422    -0.32710
H1241       H  0.63541282  0.84786817  0.43521885     0.28660
H1242       H  0.72648290  0.75120637  0.24758558     0.28660
H1243       H  0.67933135  0.76526330  0.31386568     0.19250
H1244       H  0.68660910  0.88154790  0.31030087     0.19260
C1245       C  0.67611128  0.68827976  0.63541925    -0.06570
C1246       C  0.70809184  0.66749835  0.61075589    -0.17700
C1247       C  0.73413878  0.64397869  0.63687085     0.10620
C1248       C  0.73440203  0.64371600  0.69248254    -0.06500
C1249       C  0.70267915  0.66622332  0.71652643    -0.17730
C1250       C  0.67392405  0.68815139  0.68899333     0.10660
S1251       S  0.75864109  0.61570243  0.59103525    -0.32700
S1252       S  0.63574200  0.71574930  0.72432086    -0.32710
H1253       H  0.63592192  0.73955130  0.68664343     0.28660
H1254       H  0.74195886  0.58771184  0.61378107     0.28660
H1255       H  0.70800392  0.66727462  0.56924510     0.19250
H1256       H  0.70059524  0.66699664  0.75779965     0.19260
C1257       C  0.34923341  0.81890111  0.62259060    -0.06570
C1258       C  0.29650080  0.81352703  0.62441298    -0.17700
C1259       C  0.26685344  0.82518844  0.66482431     0.10620
C1260       C  0.28992179  0.84654754  0.70221535    -0.06500
C1261       C  0.34391302  0.84617289  0.70374584    -0.17730
C1262       C  0.37291079  0.83530012  0.66376920     0.10660
S1263       S  0.20629255  0.80426609  0.67308899    -0.32700
S1264       S  0.44022241  0.84423858  0.66915206    -0.32710
H1265       H  0.43724828  0.86822200  0.63194552     0.28660
H1266       H  0.21069619  0.78115690  0.63454771     0.28660
H1267       H  0.27884752  0.79869974  0.59512938     0.19250
H1268       H  0.36551392  0.85516253  0.73604761     0.19260
C1269       C  0.29997439  0.63300000  0.28861013    -0.06570
C1270       C  0.29192392  0.66626071  0.29386316    -0.17700
C1271       C  0.31174113  0.68409111  0.33481388     0.10620
C1272       C  0.34131513  0.66909968  0.37229379    -0.06500
C1273       C  0.35392286  0.63733393  0.36511649    -0.17730
C1274       C  0.33983919  0.62077794  0.32101594     0.10660
S1275       S  0.30032536  0.72618636  0.33515724    -0.32700
S1276       S  0.38688380  0.59072586  0.30538446    -0.32710
H1277       H  0.35989495  0.56882489  0.27514017     0.28660
H1278       H  0.35095919  0.73516717  0.34732016     0.28660
H1279       H  0.27098731  0.67947463  0.26567602     0.19250
H1280       H  0.38175318  0.62679301  0.39069392     0.19260
loop_ 
_geom_bond_atom_site_label_1 
_geom_bond_atom_site_label_2 
_geom_bond_distance 
_geom_bond_site_symmetry_2 
_ccdc_geom_bond_type 
O1          Zr13   2.400       .  S
O1            C3   1.280       .  A
O2          Zr39   2.436       .  S
O2            C3   1.287       .  A
C3          C632   1.465       .  S
O4          Zr16   2.423       .  S
O4            C6   1.284       .  A
O5          Zr40   2.418       .  S
O5            C6   1.288       .  A
C6          C605   1.464       .  S
O7          Zr16   2.419       .  S
O7            C9   1.284       .  A
O8          Zr39   2.430       .  S
O8            C9   1.288       .  A
C9          C557   1.466       .  S
O10         Zr13   2.429       .  S
O10          C12   1.286       .  A
O11         Zr40   2.437       .  S
O11          C12   1.288       .  A
C12         C569   1.475       .  S
Zr13         O14   2.434       .  S
Zr13         O15   2.440       .  S
Zr13         O19   2.372       .  S
Zr13         O20   2.361       .  S
Zr13         O43   2.342       .  S
Zr13         O45   2.370       .  S
O14          H57   0.990       .  S
O15          H56   0.991       .  S
O15          H60   0.990       .  S
Zr16         O17   2.433       .  S
Zr16         O18   2.436       .  S
Zr16         O20   2.373       .  S
Zr16         O19   2.364       .  S
Zr16         O44   2.375       .  S
Zr16         O46   2.355       .  S
O17          H58   0.990       .  S
O17          H61   0.990       .  S
O18          H51   0.990       .  S
O19         Zr39   2.408       .  S
O20         Zr40   2.409       .  S
O20          H47   0.966       .  S
O21         Zr33   2.361       .  S
O21          C23   1.271       .  A
O22         Zr40   2.458       .  S
O22          C23   1.294       .  A
C23         C593   1.451       .  S
O24         Zr36   2.397       .  S
O24          C26   1.273       .  A
O25         Zr39   2.458       .  S
O25          C26   1.292       .  A
C26         C617   1.481       .  S
O27         Zr36   2.383       .  S
O27          C29   1.273       .  A
O28         Zr40   2.459       .  S
O28          C29   1.294       .  A
C29         C545   1.490       .  S
O30         Zr33   2.340       .  S
O30          C32   1.263       .  A
O31         Zr39   2.454       .  S
O31          C32   1.284       .  A
C32         C584   1.491       .  S
Zr33         O34   2.434       .  S
Zr33         O35   2.435       .  S
Zr33         O41   2.358       .  S
Zr33         O42   2.339       .  S
Zr33         O45   2.354       .  S
Zr33         O43   2.335       .  S
O34          H54   0.988       .  S
O34          H59   0.990       .  S
O35          H55   0.990       .  S
Zr36         O37   2.431       .  S
Zr36         O38   2.441       .  S
Zr36         O42   2.351       .  S
Zr36         O41   2.364       .  S
Zr36         O46   2.338       .  S
Zr36         O44   2.358       .  S
O37          H53   0.990       .  S
O38          H52   0.990       .  S
O38          H62   0.989       .  S
Zr39         O42   2.384       .  S
Zr39         O44   2.393       .  S
Zr39         O45   2.405       .  S
Zr40         O41   2.383       .  S
Zr40         O43   2.364       .  S
Zr40         O46   2.371       .  S
O41          H49   0.966       .  S
O44          H48   0.965       .  S
O45          H50   0.965       .  S
O63         Zr75   2.441       .  S
O63          C65   1.288       .  A
O64        Zr101   2.482   1_655  S
O64          C65   1.299       .  A
C65         C536   1.500       .  S
O66         Zr78   2.406   1_554  S
O66          C68   1.280       .  A
O67        Zr102   2.515   1_655  S
O67          C68   1.306       .  A
C68         C473   1.514       .  S
O69         Zr78   2.422       .  S
O69          C71   1.285       .  A
O70        Zr101   2.472   1_655  S
O70          C71   1.296       .  A
C71         C497   1.488       .  S
O72         Zr75   2.437   1_554  S
O72          C74   1.290       .  A
O73        Zr102   2.490   1_655  S
O73          C74   1.299       .  A
C74         C521   1.525       .  S
Zr75         O76   2.434       .  S
Zr75         O77   2.435       .  S
Zr75         O81   2.365       .  S
Zr75         O82   2.366   1_556  S
Zr75        O105   2.369   1_656  S
Zr75        O107   2.372   1_655  S
O76         H119   0.990       .  S
O77         H118   0.990       .  S
O77         H122   0.990   1_556  S
Zr78         O79   2.437       .  S
Zr78         O80   2.436       .  S
Zr78         O82   2.368   1_556  S
Zr78         O81   2.359       .  S
Zr78        O106   2.360   1_655  S
Zr78        O108   2.374   1_656  S
O79         H120   0.990   1_556  S
O79         H123   0.990       .  S
O80         H113   0.990       .  S
O81        Zr101   2.394   1_655  S
O82        Zr102   2.412   1_655  S
O82         H109   0.965       .  S
O83         Zr95   2.382   1_554  S
O83          C85   1.273       .  A
O84        Zr102   2.543       .  S
O84          C85   1.310       .  A
C85         C449   1.525       .  S
O86         Zr98   2.410       .  S
O86          C88   1.282       .  A
O87        Zr101   2.476       .  S
O87          C88   1.297       .  A
C88         C485   1.478       .  S
O89         Zr98   2.413   1_554  S
O89          C91   1.283       .  A
O90        Zr102   2.484       .  S
O90          C91   1.299       .  A
C91         C461   1.487       .  S
O92         Zr95   2.386       .  S
O92          C94   1.278       .  A
O93        Zr101   2.506       .  S
O93          C94   1.301       .  A
C94         C512   1.517       .  S
Zr95         O96   2.439       .  S
Zr95         O97   2.433       .  S
Zr95        O103   2.352   1_556  S
Zr95        O104   2.345       .  S
Zr95        O107   2.359       .  S
Zr95        O105   2.370   1_556  S
O96         H116   0.989   1_556  S
O96         H121   0.989       .  S
O97         H117   0.990   1_556  S
Zr98         O99   2.436       .  S
Zr98        O100   2.434       .  S
Zr98        O104   2.366       .  S
Zr98        O103   2.365   1_556  S
Zr98        O108   2.365   1_556  S
Zr98        O106   2.365       .  S
O99         H115   0.990       .  S
O100        H114   0.990   1_556  S
O100        H124   0.990       .  S
Zr101       O104   2.379       .  S
Zr101       O106   2.405       .  S
Zr101       O107   2.401       .  S
Zr102       O103   2.392       .  S
Zr102       O105   2.408       .  S
Zr102       O108   2.412       .  S
O103        H111   0.965       .  S
O106        H110   0.966       .  S
O107        H112   0.966       .  S
C125        C428   1.552       .  S
C125        C437   1.600       .  S
C125        C533   1.595       .  S
C125        C608   1.574       .  S
O126       Zr138   2.415       .  S
O126        C128   1.281       .  A
O127       Zr804   2.500   1_545  S
O127        C128   1.302       .  A
C128        C440   1.514       .  S
O129       Zr141   2.410   1_554  S
O129        C131   1.282       .  A
O130       Zr165   2.527       .  S
O130        C131   1.308       .  A
C131        C401   1.516       .  S
O132       Zr141   2.410       .  S
O132        C134   1.283       .  A
O133       Zr164   2.492       .  S
O133        C134   1.299       .  A
C134        C377   1.518       .  S
O135       Zr138   2.422   1_554  S
O135        C137   1.284       .  A
O136       Zr805   2.479   1_545  S
O136        C137   1.300       .  A
C137        C341   1.490       .  S
Zr138       O139   2.434       .  S
Zr138       O140   2.435       .  S
Zr138       O168   2.357   1_556  S
Zr138       O170   2.371       .  S
Zr138       O784   2.369   1_545  S
Zr138       O785   2.370   1_546  S
O139        H182   0.990       .  S
O140        H181   0.989       .  S
O140        H185   0.990   1_556  S
Zr141       O142   2.437   1_556  S
Zr141       O143   2.436       .  S
Zr141       O145   2.369   1_556  S
Zr141       O144   2.361       .  S
Zr141       O169   2.370       .  S
Zr141       O171   2.369   1_556  S
O142        H183   0.990       .  S
O142        H186   0.990       .  S
O143        H176   0.990       .  S
O144       Zr164   2.397       .  S
O144       Zr778   2.369       .  S
O145       Zr165   2.399       .  S
O145       Zr778   2.370   1_554  S
O145        H172   0.966       .  S
O146       Zr158   2.417   1_554  S
O146        C148   1.282       .  A
O147       Zr805   2.499   1_545  S
O147        C148   1.303       .  A
C148        C356   1.489       .  S
O149       Zr161   2.390       .  S
O149        C151   1.276       .  A
O150       Zr164   2.512       .  S
O150        C151   1.303       .  A
C151        C413   1.512       .  S
O152       Zr161   2.411   1_554  S
O152        C154   1.282       .  A
O153       Zr165   2.492       .  S
O153        C154   1.301       .  A
C154        C365   1.497       .  S
O155       Zr158   2.422       .  S
O155        C157   1.285       .  A
O156       Zr804   2.469   1_545  S
O156        C157   1.295       .  A
C157        C392   1.485       .  S
Zr158       O159   2.438       .  S
Zr158       O160   2.435       .  S
Zr158       O170   2.364       .  S
Zr158       O168   2.369   1_556  S
Zr158       O806   2.368   1_546  S
Zr158       O807   2.359   1_545  S
O159        H179   0.990   1_556  S
O159        H184   0.990       .  S
O160        H180   0.990   1_556  S
Zr161       O162   2.434       .  S
Zr161       O163   2.435       .  S
Zr161       O167   2.362       .  S
Zr161       O166   2.357   1_556  S
Zr161       O171   2.356   1_556  S
Zr161       O169   2.371       .  S
O162        H178   0.990       .  S
O163        H177   0.990   1_556  S
O163        H187   0.990   1_556  S
Zr164       O767   2.500       .  S
Zr164       O796   2.469       .  S
Zr164       O167   2.396       .  S
Zr164       O169   2.408       .  S
Zr164       O810   2.410       .  S
Zr165       O776   2.479       .  S
Zr165       O787   2.499       .  S
Zr165       O166   2.399       .  S
Zr165       O171   2.393       .  S
Zr165       O808   2.400       .  S
O166       Zr798   2.368   1_554  S
O166        H174   0.965       .  S
O167       Zr798   2.359       .  S
O168       Zr805   2.400   1_545  S
O169        H173   0.966       .  S
O170       Zr804   2.410   1_545  S
O170        H175   0.966       .  S
C188        C332   1.578       .  S
C188        C416   1.592       .  S
C188        C488   1.581       .  S
C188        C620   1.594       .  S
O189       Zr201   2.384   1_655  S
O189        C191   1.277       .  A
O190       Zr867   2.450   1_545  S
O190        C191   1.291       .  A
C191        C425   1.463       .  S
O192       Zr204   2.368       .  S
O192        C194   1.275       .  A
O193       Zr868   2.451   1_545  S
O193        C194   1.291       .  A
C194        C269   1.476       .  S
O195       Zr204   2.388   1_655  S
O195        C197   1.278       .  A
O196       Zr867   2.453   1_545  S
O196        C197   1.294       .  A
C197        C317   1.462       .  S
O198       Zr201   2.375       .  S
O198        C200   1.276       .  A
O199       Zr868   2.454   1_545  S
O199        C200   1.290       .  A
C200        C260   1.491       .  S
Zr201       O202   2.435       .  S
Zr201       O203   2.438       .  S
Zr201       O207   2.359   1_455  S
Zr201       O208   2.355       .  S
Zr201       O871   2.353   1_545  S
Zr201       O873   2.350   1_445  S
O202        H245   0.990   1_455  S
O203        H244   0.990   1_455  S
O203        H248   0.990       .  S
Zr204       O205   2.434       .  S
Zr204       O206   2.430       .  S
Zr204       O208   2.358       .  S
Zr204       O207   2.357   1_455  S
Zr204       O872   2.348   1_445  S
Zr204       O874   2.361   1_545  S
O205        H246   0.990       .  S
O205        H249   0.990       .  S
O206        H239   0.990       .  S
O207       Zr867   2.393   1_545  S
O208       Zr868   2.394   1_545  S
O208        H235   0.966       .  S
O209       Zr221   2.403       .  S
O209        C211   1.281       .  A
O210       Zr228   2.430       .  S
O210        C211   1.287       .  A
C211        C329   1.464       .  S
O212       Zr224   2.399   1_655  S
O212        C214   1.280       .  A
O213       Zr227   2.444       .  S
O213        C214   1.292       .  A
C214        C305   1.462       .  S
O215       Zr224   2.392       .  S
O215        C217   1.278       .  A
O216       Zr228   2.437       .  S
O216        C217   1.289       .  A
C217        C296   1.473       .  S
O218       Zr221   2.405   1_655  S
O218        C220   1.281       .  A
O219       Zr227   2.441       .  S
O219        C220   1.290       .  A
C220        C281   1.463       .  S
Zr221       O222   2.435       .  S
Zr221       O223   2.435       .  S
Zr221       O229   2.359       .  S
Zr221       O230   2.360   1_455  S
Zr221       O233   2.354   1_455  S
Zr221       O231   2.360       .  S
O222        H242   0.989       .  S
O222        H247   0.990   1_455  S
O223        H243   0.990       .  S
Zr224       O225   2.434       .  S
Zr224       O226   2.438       .  S
Zr224       O230   2.362   1_455  S
Zr224       O229   2.363       .  S
Zr224       O234   2.359       .  S
Zr224       O232   2.344   1_455  S
O225        H241   0.990   1_455  S
O226        H240   0.990       .  S
O226        H250   0.990       .  S
Zr227       O830   2.450       .  S
Zr227       O836   2.453       .  S
Zr227       O230   2.392       .  S
Zr227       O232   2.378       .  S
Zr227       O233   2.387       .  S
Zr227       O847   2.393       .  S
Zr228       O833   2.451       .  S
Zr228       O839   2.454       .  S
Zr228       O229   2.402       .  S
Zr228       O231   2.382       .  S
Zr228       O234   2.380       .  S
Zr228       O848   2.394       .  S
O229        H237   0.966       .  S
O231       Zr841   2.353       .  S
O232       Zr844   2.348   1_655  S
O232        H236   0.964       .  S
O233       Zr841   2.350   1_655  S
O233        H238   0.964       .  S
O234       Zr844   2.361       .  S
C251        C308   1.577       .  S
C251        C404   1.609       .  S
C251        C476   1.596       .  S
C251        C596   1.549       .  S
C252        C272   1.576       .  S
C252        C353   1.588       .  S
C252        C452   1.597       .  S
C252        C629   1.590       .  S
C253        C320   1.566       .  S
C253        C344   1.580       .  S
C253        C524   1.606       .  S
C253        C572   1.570       .  S
C254        C293   1.582       .  S
C254        C368   1.576       .  S
C254        C464   1.586       .  S
C254        C581   1.568       .  S
C255        C257   1.568       .  S
C255        C389   1.591       .  S
C255        C509   1.581       .  S
C255        C560   1.583       .  S
C256        C284   1.578       .  S
C256        C380   1.597       .  S
C256        C500   1.575       .  S
C256        C548   1.574       .  S
C257        C258   1.427       .  A
C257        C262   1.430       .  A
C258        C259   1.403       .  A
C258        H267   1.083       .  S
C259        C260   1.405       .  A
C259        S263   1.798       .  S
C260        C261   1.408       .  A
C261        C262   1.388       .  A
C261        H268   1.081       .  S
C262        S264   1.818       .  S
S263        H266   1.407       .  S
S264        H265   1.408       .  S
C269        C270   1.407       .  A
C269        C274   1.395       .  A
C270        C271   1.391       .  A
C270        H279   1.082       .  S
C271        C272   1.435       .  A
C271        S275   1.818       .  S
C272        C273   1.421       .  A
C273        C274   1.392       .  A
C273        H280   1.052       .  S
C274        S276   1.802       .  S
S275        H278   1.399       .  S
S276        H277   1.407       .  S
C281        C282   1.400       .  A
C281        C286   1.394       .  A
C282        C283   1.400       .  A
C282        H291   1.083       .  S
C283        C284   1.427       .  A
C283        S287   1.807       .  S
C284        C285   1.430       .  A
C285        C286   1.392       .  A
C285        H292   1.076       .  S
C286        S288   1.803       .  S
S287        H290   1.406       .  S
S288        H289   1.405       .  S
C293        C294   1.419       .  A
C293        C298   1.445       .  A
C294        C295   1.378       .  A
C294        H303   1.077       .  S
C295        C296   1.406       .  A
C295        S299   1.808       .  S
C296        C297   1.393       .  A
C297        C298   1.408       .  A
C297        H304   1.082       .  S
C298        S300   1.807       .  S
S299        H302   1.408       .  S
S300        H301   1.406       .  S
C305        C306   1.381       .  A
C305        C310   1.406       .  A
C306        C307   1.394       .  A
C306        H315   1.086       .  S
C307        C308   1.459       .  A
C307        S311   1.821       .  S
C308        C309   1.414       .  A
C309        C310   1.393       .  A
C309        H316   1.083       .  S
C310        S312   1.798       .  S
S311        H314   1.383       .  S
S312        H313   1.404       .  S
C317        C318   1.384       .  A
C317        C322   1.412       .  A
C318        C319   1.393       .  A
C318        H327   1.085       .  S
C319        C320   1.444       .  A
C319        S323   1.807       .  S
C320        C321   1.413       .  A
C321        C322   1.396       .  A
C321        H328   1.080       .  S
C322        S324   1.805       .  S
S323        H326   1.408       .  S
S324        H325   1.407       .  S
C329        C330   1.401       .  A
C329        C334   1.404       .  A
C330        C331   1.409       .  A
C330        H339   1.085       .  S
C331        C332   1.438       .  A
C331        S335   1.809       .  S
C332        C333   1.399       .  A
C333        C334   1.379       .  A
C333        H340   1.066       .  S
C334        S336   1.805       .  S
S335        H338   1.402       .  S
S336        H337   1.407       .  S
C341        C342   1.387       .  A
C341        C346   1.409       .  A
C342        C343   1.401       .  A
C342        H351   1.065       .  S
C343        C344   1.443       .  A
C343        S347   1.806       .  S
C344        C345   1.426       .  A
C345        C346   1.407       .  A
C345        H352   1.084       .  S
C346        S348   1.803       .  S
S347        H350   1.408       .  S
S348        H349   1.406       .  S
C353        C354   1.427       .  A
C353        C358   1.441       .  A
C354        C355   1.410       .  A
C354        H363   1.083       .  S
C355        C356   1.407       .  A
C355        S359   1.802       .  S
C356        C357   1.395       .  A
C357        C358   1.406       .  A
C357        H364   1.080       .  S
C358        S360   1.810       .  S
S359        H362   1.406       .  S
S360        H361   1.406       .  S
C365        C366   1.405       .  A
C365        C370   1.411       .  A
C366        C367   1.409       .  A
C366        H375   1.083       .  S
C367        C368   1.435       .  A
C367        S371   1.809       .  S
C368        C369   1.416       .  A
C369        C370   1.406       .  A
C369        H376   1.077       .  S
C370        S372   1.796       .  S
S371        H374   1.406       .  S
S372        H373   1.395       .  S
C377        C378   1.413       .  A
C377        C382   1.411       .  A
C378        C379   1.406       .  A
C378        H387   1.081       .  S
C379        C380   1.434       .  A
C379        S383   1.812       .  S
C380        C381   1.430       .  A
C381        C382   1.411       .  A
C381        H388   1.083       .  S
C382        S384   1.799       .  S
S383        H386   1.408       .  S
S384        H385   1.408       .  S
C389        C390   1.428       .  A
C389        C394   1.437       .  A
C390        C391   1.409       .  A
C390        H399   1.075       .  S
C391        C392   1.405       .  A
C391        S395   1.804       .  S
C392        C393   1.396       .  A
C393        C394   1.404       .  A
C393        H400   1.084       .  S
C394        S396   1.803       .  S
S395        H398   1.405       .  S
S396        H397   1.407       .  S
C401        C402   1.405       .  A
C401        C406   1.406       .  A
C402        C403   1.413       .  A
C402        H411   1.083       .  S
C403        C404   1.435       .  A
C403        S407   1.803       .  S
C404        C405   1.427       .  A
C405        C406   1.410       .  A
C405        H412   1.079       .  S
C406        S408   1.780       .  S
S407        H410   1.407       .  S
S408        H409   1.405       .  S
C413        C414   1.399       .  A
C413        C418   1.424       .  A
C414        C415   1.417       .  A
C414        H423   1.084       .  S
C415        C416   1.456       .  A
C415        S419   1.819       .  S
C416        C417   1.410       .  A
C417        C418   1.395       .  A
C417        H424   1.079       .  S
C418        S420   1.807       .  S
S419        H422   1.395       .  S
S420        H421   1.408       .  S
C425        C426   1.394       .  A
C425        C430   1.405       .  A
C426        C427   1.387       .  A
C426        H435   1.084       .  S
C427        C428   1.436       .  A
C427        S431   1.813       .  S
C428        C429   1.418       .  A
C429        C430   1.401       .  A
C429        H436   1.077       .  S
C430        S432   1.797       .  S
S431        H434   1.407       .  S
S432       H1073   1.403       .  S
H433       S1072   1.403       .  S
C437        C438   1.415       .  A
C437        C442   1.439       .  A
C438        C439   1.397       .  A
C438        H447   1.079       .  S
C439        C440   1.424       .  A
C439        S443   1.802       .  S
C440        C441   1.402       .  A
C441        C442   1.415       .  A
C441        H448   1.084       .  S
C442        S444   1.789       .  S
S443        H446   1.406       .  S
S444        H445   1.407       .  S
C449        C450   1.402       .  A
C449        C454   1.434       .  A
C450        C451   1.421       .  A
C450        H459   1.083       .  S
C451        C452   1.456       .  A
C451        S455   1.818       .  S
C452        C453   1.406       .  A
C453        C454   1.398       .  A
C453        H460   1.075       .  S
C454        S456   1.811       .  S
S455        H458   1.394       .  S
S456        H457   1.408       .  S
C461        C462   1.402       .  A
C461        C466   1.408       .  A
C462        C463   1.407       .  A
C462        H471   1.083       .  S
C463        C464   1.431       .  A
C463        S467   1.811       .  S
C464        C465   1.423       .  A
C465        C466   1.404       .  A
C465        H472   1.079       .  S
C466        S468   1.803       .  S
S467        H470   1.406       .  S
S468        H469   1.405       .  S
C473        C474   1.397       .  A
C473        C478   1.425       .  A
C474        C475   1.414       .  A
C474        H483   1.084       .  S
C475        C476   1.441       .  A
C475        S479   1.785       .  S
C476        C477   1.414       .  A
C477        C478   1.403       .  A
C477        H484   1.079       .  S
C478        S480   1.805       .  S
S479        H482   1.408       .  S
S480        H481   1.408       .  S
C485        C486   1.399       .  A
C485        C490   1.410       .  A
C486        C487   1.406       .  A
C486        H495   1.085       .  S
C487        C488   1.434       .  A
C487        S491   1.804       .  S
C488        C489   1.417       .  A
C489        C490   1.400       .  A
C489        H496   1.080       .  S
C490        S492   1.806       .  S
S491        H494   1.403       .  S
S492        H493   1.404       .  S
C497        C498   1.401       .  A
C497        C502   1.406       .  A
C498        C499   1.404       .  A
C498        H507   1.083       .  S
C499        C500   1.433       .  A
C499        S503   1.811       .  S
C500        C501   1.424       .  A
C501        C502   1.406       .  A
C501        H508   1.076       .  S
C502        S504   1.800       .  S
S503        H506   1.407       .  S
S504        H505   1.404       .  S
C509        C510   1.434       .  A
C509        C514   1.433       .  A
C510        C511   1.410       .  A
C510        H519   1.081       .  S
C511        C512   1.408       .  A
C511        S515   1.798       .  S
C512        C513   1.416       .  A
C513        C514   1.403       .  A
C513        H520   1.083       .  S
C514        S516   1.810       .  S
S515        H518   1.408       .  S
S516        H517   1.394       .  S
C521        C522   1.407       .  A
C521        C526   1.416       .  A
C522        C523   1.404       .  A
C522        H531   1.082       .  S
C523        C524   1.442       .  A
C523        S527   1.814       .  S
C524        C525   1.427       .  A
C525        C526   1.419       .  A
C525        H532   1.083       .  S
C526        S528   1.798       .  S
S527        H530   1.408       .  S
S528        H529   1.408       .  S
C533        C534   1.422       .  A
C533        C538   1.436       .  A
C534        C535   1.407       .  A
C534        H543   1.077       .  S
C535        C536   1.410       .  A
C535        S539   1.796       .  S
C536        C537   1.402       .  A
C537        C538   1.412       .  A
C537        H544   1.083       .  S
C538        S540   1.812       .  S
S539        H542   1.404       .  S
S540        H541   1.406       .  S
C545        C546   1.401       .  A
C545        C550   1.422       .  A
C546        C547   1.410       .  A
C546        H555   1.082       .  S
C547        C548   1.439       .  A
C547        S551   1.807       .  S
C548        C549   1.401       .  A
C549        C550   1.381       .  A
C549        H556   1.078       .  S
C550        S552   1.803       .  S
S551        H554   1.407       .  S
S552        H553   1.407       .  S
C557        C558   1.399       .  A
C557        C562   1.401       .  A
C558        C559   1.395       .  A
C558        H567   1.085       .  S
C559        C560   1.427       .  A
C559        S563   1.793       .  S
C560        C561   1.427       .  A
C561        C562   1.396       .  A
C561        H568   1.079       .  S
C562        S564   1.804       .  S
S563        H566   1.407       .  S
S564        H565   1.407       .  S
C569        C570   1.392       .  A
C569        C574   1.413       .  A
C570        C571   1.388       .  A
C570        H579   1.085       .  S
C571        C572   1.441       .  A
C571        S575   1.807       .  S
C572        C573   1.419       .  A
C573        C574   1.407       .  A
C573        H580   1.073       .  S
C574        S576   1.804       .  S
S575        H578   1.408       .  S
S576        H577   1.393       .  S
C581        C582   1.434       .  A
C581        C586   1.431       .  A
C582        C583   1.402       .  A
C582        H591   1.080       .  S
C583        C584   1.399       .  A
C583        S587   1.799       .  S
C584        C585   1.410       .  A
C585        C586   1.380       .  A
C585        H592   1.081       .  S
C586        S588   1.817       .  S
S587        H590   1.407       .  S
S588        H589   1.409       .  S
C593        C594   1.398       .  A
C593        C598   1.397       .  A
C594        C595   1.409       .  A
C594        H603   1.078       .  S
C595        C596   1.433       .  A
C595        S599   1.809       .  S
C596        C597   1.420       .  A
C597        C598   1.378       .  A
C597        H604   1.079       .  S
C598        S600   1.805       .  S
S599        H602   1.406       .  S
S600        H601   1.406       .  S
C605        C606   1.383       .  A
C605        C610   1.404       .  A
C606        C607   1.389       .  A
C606        H615   1.087       .  S
C607        C608   1.456       .  A
C607        S611   1.816       .  S
C608        C609   1.420       .  A
C609        C610   1.398       .  A
C609        H616   1.083       .  S
C610        S612   1.804       .  S
S611        H614   1.387       .  S
S612        H613   1.408       .  S
C617        C618   1.395       .  A
C617        C622   1.411       .  A
C618        C619   1.409       .  A
C618        H627   1.082       .  S
C619        C620   1.448       .  A
C619        S623   1.814       .  S
C620        C621   1.413       .  A
C621        C622   1.379       .  A
C621        H628   1.077       .  S
C622        S624   1.798       .  S
S623        H626   1.406       .  S
S624        H625   1.407       .  S
C629        C630   1.426       .  A
C629        C634   1.441       .  A
C630        C631   1.398       .  A
C630        H639   1.077       .  S
C631        C632   1.402       .  A
C631        S635   1.802       .  S
C632        C633   1.395       .  A
C633        C634   1.390       .  A
C633        H640   1.086       .  S
C634        S636   1.828       .  S
S635        H638   1.404       .  S
S636        H637   1.392       .  S
O641       Zr653   2.400       .  S
O641        C643   1.280       .  A
O642       Zr679   2.436       .  S
O642        C643   1.287       .  A
C643       C1272   1.465       .  S
O644       Zr656   2.423       .  S
O644        C646   1.284       .  A
O645       Zr680   2.418       .  S
O645        C646   1.288       .  A
C646       C1245   1.464       .  S
O647       Zr656   2.419       .  S
O647        C649   1.284       .  A
O648       Zr679   2.430       .  S
O648        C649   1.288       .  A
C649       C1197   1.466       .  S
O650       Zr653   2.429       .  S
O650        C652   1.286       .  A
O651       Zr680   2.437       .  S
O651        C652   1.288       .  A
C652       C1209   1.475       .  S
Zr653       O654   2.434       .  S
Zr653       O655   2.440       .  S
Zr653       O659   2.372       .  S
Zr653       O660   2.361       .  S
Zr653       O683   2.342       .  S
Zr653       O685   2.370       .  S
O654        H697   0.990       .  S
O655        H696   0.991       .  S
O655        H700   0.990       .  S
Zr656       O657   2.433       .  S
Zr656       O658   2.436       .  S
Zr656       O660   2.373       .  S
Zr656       O659   2.364       .  S
Zr656       O684   2.375       .  S
Zr656       O686   2.355       .  S
O657        H698   0.990       .  S
O657        H701   0.990       .  S
O658        H691   0.990       .  S
O659       Zr679   2.408       .  S
O660       Zr680   2.409       .  S
O660        H687   0.966       .  S
O661       Zr673   2.361       .  S
O661        C663   1.271       .  A
O662       Zr680   2.458       .  S
O662        C663   1.294       .  A
C663       C1233   1.451       .  S
O664       Zr676   2.397       .  S
O664        C666   1.273       .  A
O665       Zr679   2.458       .  S
O665        C666   1.292       .  A
C666       C1257   1.481       .  S
O667       Zr676   2.383       .  S
O667        C669   1.273       .  A
O668       Zr680   2.459       .  S
O668        C669   1.294       .  A
C669       C1185   1.490       .  S
O670       Zr673   2.340       .  S
O670        C672   1.263       .  A
O671       Zr679   2.454       .  S
O671        C672   1.284       .  A
C672       C1224   1.491       .  S
Zr673       O674   2.434       .  S
Zr673       O675   2.435       .  S
Zr673       O681   2.358       .  S
Zr673       O682   2.339       .  S
Zr673       O685   2.354       .  S
Zr673       O683   2.335       .  S
O674        H694   0.988       .  S
O674        H699   0.990       .  S
O675        H695   0.990       .  S
Zr676       O677   2.431       .  S
Zr676       O678   2.441       .  S
Zr676       O682   2.351       .  S
Zr676       O681   2.364       .  S
Zr676       O686   2.338       .  S
Zr676       O684   2.358       .  S
O677        H693   0.990       .  S
O678        H692   0.990       .  S
O678        H702   0.989       .  S
Zr679       O682   2.384       .  S
Zr679       O684   2.393       .  S
Zr679       O685   2.405       .  S
Zr680       O681   2.383       .  S
Zr680       O683   2.364       .  S
Zr680       O686   2.371       .  S
O681        H689   0.966       .  S
O684        H688   0.965       .  S
O685        H690   0.965       .  S
O703       Zr715   2.441       .  S
O703        C705   1.288       .  A
O704       Zr741   2.482   1_655  S
O704        C705   1.299       .  A
C705       C1176   1.500       .  S
O706       Zr718   2.406   1_554  S
O706        C708   1.280       .  A
O707       Zr742   2.515   1_655  S
O707        C708   1.306       .  A
C708       C1113   1.514       .  S
O709       Zr718   2.422       .  S
O709        C711   1.285       .  A
O710       Zr741   2.472   1_655  S
O710        C711   1.296       .  A
C711       C1137   1.488       .  S
O712       Zr715   2.437   1_554  S
O712        C714   1.290       .  A
O713       Zr742   2.490   1_655  S
O713        C714   1.299       .  A
C714       C1161   1.525       .  S
Zr715       O716   2.434       .  S
Zr715       O717   2.435       .  S
Zr715       O721   2.365       .  S
Zr715       O722   2.366   1_556  S
Zr715       O745   2.369   1_656  S
Zr715       O747   2.372   1_655  S
O716        H759   0.990       .  S
O717        H758   0.990       .  S
O717        H762   0.990   1_556  S
Zr718       O719   2.437       .  S
Zr718       O720   2.436       .  S
Zr718       O722   2.368   1_556  S
Zr718       O721   2.359       .  S
Zr718       O746   2.360   1_655  S
Zr718       O748   2.374   1_656  S
O719        H760   0.990   1_556  S
O719        H763   0.990       .  S
O720        H753   0.990       .  S
O721       Zr741   2.394   1_655  S
O722       Zr742   2.412   1_655  S
O722        H749   0.965       .  S
O723       Zr735   2.382   1_554  S
O723        C725   1.273       .  A
O724       Zr742   2.543       .  S
O724        C725   1.310       .  A
C725       C1089   1.525       .  S
O726       Zr738   2.410       .  S
O726        C728   1.282       .  A
O727       Zr741   2.476       .  S
O727        C728   1.297       .  A
C728       C1125   1.478       .  S
O729       Zr738   2.413   1_554  S
O729        C731   1.283       .  A
O730       Zr742   2.484       .  S
O730        C731   1.299       .  A
C731       C1101   1.487       .  S
O732       Zr735   2.386       .  S
O732        C734   1.278       .  A
O733       Zr741   2.506       .  S
O733        C734   1.301       .  A
C734       C1152   1.517       .  S
Zr735       O736   2.439       .  S
Zr735       O737   2.433       .  S
Zr735       O743   2.352   1_556  S
Zr735       O744   2.345       .  S
Zr735       O747   2.359       .  S
Zr735       O745   2.370   1_556  S
O736        H756   0.989   1_556  S
O736        H761   0.989       .  S
O737        H757   0.990   1_556  S
Zr738       O739   2.436       .  S
Zr738       O740   2.434       .  S
Zr738       O744   2.366       .  S
Zr738       O743   2.365   1_556  S
Zr738       O748   2.365   1_556  S
Zr738       O746   2.365       .  S
O739        H755   0.990       .  S
O740        H754   0.990   1_556  S
O740        H764   0.990       .  S
Zr741       O744   2.379       .  S
Zr741       O746   2.405       .  S
Zr741       O747   2.401       .  S
Zr742       O743   2.392       .  S
Zr742       O745   2.408       .  S
Zr742       O748   2.412       .  S
O743        H751   0.965       .  S
O746        H750   0.966       .  S
O747        H752   0.966       .  S
C765       C1068   1.552       .  S
C765       C1077   1.600       .  S
C765       C1173   1.595       .  S
C765       C1248   1.574       .  S
O766       Zr778   2.415       .  S
O766        C768   1.281       .  A
O767        C768   1.302       .  A
C768       C1080   1.514       .  S
O769       Zr781   2.410   1_554  S
O769        C771   1.282       .  A
O770       Zr805   2.527       .  S
O770        C771   1.308       .  A
C771       C1041   1.516       .  S
O772       Zr781   2.410       .  S
O772        C774   1.283       .  A
O773       Zr804   2.492       .  S
O773        C774   1.299       .  A
C774       C1017   1.518       .  S
O775       Zr778   2.422   1_554  S
O775        C777   1.284       .  A
O776        C777   1.300       .  A
C777        C981   1.490       .  S
Zr778       O779   2.434       .  S
Zr778       O780   2.435       .  S
Zr778       O808   2.357   1_556  S
Zr778       O810   2.371       .  S
O779        H822   0.990       .  S
O780        H821   0.989       .  S
O780        H825   0.990   1_556  S
Zr781       O782   2.437   1_556  S
Zr781       O783   2.436       .  S
Zr781       O785   2.369   1_556  S
Zr781       O784   2.361       .  S
Zr781       O809   2.370       .  S
Zr781       O811   2.369   1_556  S
O782        H823   0.990       .  S
O782        H826   0.990       .  S
O783        H816   0.990       .  S
O784       Zr804   2.397       .  S
O785       Zr805   2.399       .  S
O785        H812   0.966       .  S
O786       Zr798   2.417   1_554  S
O786        C788   1.282       .  A
O787        C788   1.303       .  A
C788        C996   1.489       .  S
O789       Zr801   2.390       .  S
O789        C791   1.276       .  A
O790       Zr804   2.512       .  S
O790        C791   1.303       .  A
C791       C1053   1.512       .  S
O792       Zr801   2.411   1_554  S
O792        C794   1.282       .  A
O793       Zr805   2.492       .  S
O793        C794   1.301       .  A
C794       C1005   1.497       .  S
O795       Zr798   2.422       .  S
O795        C797   1.285       .  A
O796        C797   1.295       .  A
C797       C1032   1.485       .  S
Zr798       O799   2.438       .  S
Zr798       O800   2.435       .  S
Zr798       O810   2.364       .  S
Zr798       O808   2.369   1_556  S
O799        H819   0.990   1_556  S
O799        H824   0.990       .  S
O800        H820   0.990   1_556  S
Zr801       O802   2.434       .  S
Zr801       O803   2.435       .  S
Zr801       O807   2.362       .  S
Zr801       O806   2.357   1_556  S
Zr801       O811   2.356   1_556  S
Zr801       O809   2.371       .  S
O802        H818   0.990       .  S
O803        H817   0.990   1_556  S
O803        H827   0.990   1_556  S
Zr804       O807   2.396       .  S
Zr804       O809   2.408       .  S
Zr805       O806   2.399       .  S
Zr805       O811   2.393       .  S
O806        H814   0.965       .  S
O809        H813   0.966       .  S
O810        H815   0.966       .  S
C828        C972   1.578       .  S
C828       C1056   1.592       .  S
C828       C1128   1.581       .  S
C828       C1260   1.594       .  S
O829       Zr841   2.384   1_655  S
O829        C831   1.277       .  A
O830        C831   1.291       .  A
C831       C1065   1.463       .  S
O832       Zr844   2.368       .  S
O832        C834   1.275       .  A
O833        C834   1.291       .  A
C834        C909   1.476       .  S
O835       Zr844   2.388   1_655  S
O835        C837   1.278       .  A
O836        C837   1.294       .  A
C837        C957   1.462       .  S
O838       Zr841   2.375       .  S
O838        C840   1.276       .  A
O839        C840   1.290       .  A
C840        C900   1.491       .  S
Zr841       O842   2.435       .  S
Zr841       O843   2.438       .  S
Zr841       O847   2.359   1_455  S
Zr841       O848   2.355       .  S
O842        H885   0.990   1_455  S
O843        H884   0.990   1_455  S
O843        H888   0.990       .  S
Zr844       O845   2.434       .  S
Zr844       O846   2.430       .  S
Zr844       O848   2.358       .  S
Zr844       O847   2.357   1_455  S
O845        H886   0.990       .  S
O845        H889   0.990       .  S
O846        H879   0.990       .  S
O848        H875   0.966       .  S
O849       Zr861   2.403       .  S
O849        C851   1.281       .  A
O850       Zr868   2.430       .  S
O850        C851   1.287       .  A
C851        C969   1.464       .  S
O852       Zr864   2.399   1_655  S
O852        C854   1.280       .  A
O853       Zr867   2.444       .  S
O853        C854   1.292       .  A
C854        C945   1.462       .  S
O855       Zr864   2.392       .  S
O855        C857   1.278       .  A
O856       Zr868   2.437       .  S
O856        C857   1.289       .  A
C857        C936   1.473       .  S
O858       Zr861   2.405   1_655  S
O858        C860   1.281       .  A
O859       Zr867   2.441       .  S
O859        C860   1.290       .  A
C860        C921   1.463       .  S
Zr861       O862   2.435       .  S
Zr861       O863   2.435       .  S
Zr861       O869   2.359       .  S
Zr861       O870   2.360   1_455  S
Zr861       O873   2.354   1_455  S
Zr861       O871   2.360       .  S
O862        H882   0.989       .  S
O862        H887   0.990   1_455  S
O863        H883   0.990       .  S
Zr864       O865   2.434       .  S
Zr864       O866   2.438       .  S
Zr864       O870   2.362   1_455  S
Zr864       O869   2.363       .  S
Zr864       O874   2.359       .  S
Zr864       O872   2.344   1_455  S
O865        H881   0.990   1_455  S
O866        H880   0.990       .  S
O866        H890   0.990       .  S
Zr867       O870   2.392       .  S
Zr867       O872   2.378       .  S
Zr867       O873   2.387       .  S
Zr868       O869   2.402       .  S
Zr868       O871   2.382       .  S
Zr868       O874   2.380       .  S
O869        H877   0.966       .  S
O872        H876   0.964       .  S
O873        H878   0.964       .  S
C891        C948   1.577       .  S
C891       C1044   1.609       .  S
C891       C1116   1.596       .  S
C891       C1236   1.549       .  S
C892        C912   1.576       .  S
C892        C993   1.588       .  S
C892       C1092   1.597       .  S
C892       C1269   1.590       .  S
C893        C960   1.566       .  S
C893        C984   1.580       .  S
C893       C1164   1.606       .  S
C893       C1212   1.570       .  S
C894        C933   1.582       .  S
C894       C1008   1.576       .  S
C894       C1104   1.586       .  S
C894       C1221   1.568       .  S
C895        C897   1.568       .  S
C895       C1029   1.591       .  S
C895       C1149   1.581       .  S
C895       C1200   1.583       .  S
C896        C924   1.578       .  S
C896       C1020   1.597       .  S
C896       C1140   1.575       .  S
C896       C1188   1.574       .  S
C897        C898   1.427       .  A
C897        C902   1.430       .  A
C898        C899   1.403       .  A
C898        H907   1.083       .  S
C899        C900   1.405       .  A
C899        S903   1.798       .  S
C900        C901   1.408       .  A
C901        C902   1.388       .  A
C901        H908   1.081       .  S
C902        S904   1.818       .  S
S903        H906   1.407       .  S
S904        H905   1.408       .  S
C909        C910   1.407       .  A
C909        C914   1.395       .  A
C910        C911   1.391       .  A
C910        H919   1.082       .  S
C911        C912   1.435       .  A
C911        S915   1.818       .  S
C912        C913   1.421       .  A
C913        C914   1.392       .  A
C913        H920   1.052       .  S
C914        S916   1.802       .  S
S915        H918   1.399       .  S
S916        H917   1.407       .  S
C921        C922   1.400       .  A
C921        C926   1.394       .  A
C922        C923   1.400       .  A
C922        H931   1.083       .  S
C923        C924   1.427       .  A
C923        S927   1.807       .  S
C924        C925   1.430       .  A
C925        C926   1.392       .  A
C925        H932   1.076       .  S
C926        S928   1.803       .  S
S927        H930   1.406       .  S
S928        H929   1.405       .  S
C933        C934   1.419       .  A
C933        C938   1.445       .  A
C934        C935   1.378       .  A
C934        H943   1.077       .  S
C935        C936   1.406       .  A
C935        S939   1.808       .  S
C936        C937   1.393       .  A
C937        C938   1.408       .  A
C937        H944   1.082       .  S
C938        S940   1.807       .  S
S939        H942   1.408       .  S
S940        H941   1.406       .  S
C945        C946   1.381       .  A
C945        C950   1.406       .  A
C946        C947   1.394       .  A
C946        H955   1.086       .  S
C947        C948   1.459       .  A
C947        S951   1.821       .  S
C948        C949   1.414       .  A
C949        C950   1.393       .  A
C949        H956   1.083       .  S
C950        S952   1.798       .  S
S951        H954   1.383       .  S
S952        H953   1.404       .  S
C957        C958   1.384       .  A
C957        C962   1.412       .  A
C958        C959   1.393       .  A
C958        H967   1.085       .  S
C959        C960   1.444       .  A
C959        S963   1.807       .  S
C960        C961   1.413       .  A
C961        C962   1.396       .  A
C961        H968   1.080       .  S
C962        S964   1.805       .  S
S963        H966   1.408       .  S
S964        H965   1.407       .  S
C969        C970   1.401       .  A
C969        C974   1.404       .  A
C970        C971   1.409       .  A
C970        H979   1.085       .  S
C971        C972   1.438       .  A
C971        S975   1.809       .  S
C972        C973   1.399       .  A
C973        C974   1.379       .  A
C973        H980   1.066       .  S
C974        S976   1.805       .  S
S975        H978   1.402       .  S
S976        H977   1.407       .  S
C981        C982   1.387       .  A
C981        C986   1.409       .  A
C982        C983   1.401       .  A
C982        H991   1.065       .  S
C983        C984   1.443       .  A
C983        S987   1.806       .  S
C984        C985   1.426       .  A
C985        C986   1.407       .  A
C985        H992   1.084       .  S
C986        S988   1.803       .  S
S987        H990   1.408       .  S
S988        H989   1.406       .  S
C993        C994   1.427       .  A
C993        C998   1.441       .  A
C994        C995   1.410       .  A
C994       H1003   1.083       .  S
C995        C996   1.407       .  A
C995        S999   1.802       .  S
C996        C997   1.395       .  A
C997        C998   1.406       .  A
C997       H1004   1.080       .  S
C998       S1000   1.810       .  S
S999       H1002   1.406       .  S
S1000      H1001   1.406       .  S
C1005      C1006   1.405       .  A
C1005      C1010   1.411       .  A
C1006      C1007   1.409       .  A
C1006      H1015   1.083       .  S
C1007      C1008   1.435       .  A
C1007      S1011   1.809       .  S
C1008      C1009   1.416       .  A
C1009      C1010   1.406       .  A
C1009      H1016   1.077       .  S
C1010      S1012   1.796       .  S
S1011      H1014   1.406       .  S
S1012      H1013   1.395       .  S
C1017      C1018   1.413       .  A
C1017      C1022   1.411       .  A
C1018      C1019   1.406       .  A
C1018      H1027   1.081       .  S
C1019      C1020   1.434       .  A
C1019      S1023   1.812       .  S
C1020      C1021   1.430       .  A
C1021      C1022   1.411       .  A
C1021      H1028   1.083       .  S
C1022      S1024   1.799       .  S
S1023      H1026   1.408       .  S
S1024      H1025   1.408       .  S
C1029      C1030   1.428       .  A
C1029      C1034   1.437       .  A
C1030      C1031   1.409       .  A
C1030      H1039   1.075       .  S
C1031      C1032   1.405       .  A
C1031      S1035   1.804       .  S
C1032      C1033   1.396       .  A
C1033      C1034   1.404       .  A
C1033      H1040   1.084       .  S
C1034      S1036   1.803       .  S
S1035      H1038   1.405       .  S
S1036      H1037   1.407       .  S
C1041      C1042   1.405       .  A
C1041      C1046   1.406       .  A
C1042      C1043   1.413       .  A
C1042      H1051   1.083       .  S
C1043      C1044   1.435       .  A
C1043      S1047   1.803       .  S
C1044      C1045   1.427       .  A
C1045      C1046   1.410       .  A
C1045      H1052   1.079       .  S
C1046      S1048   1.780       .  S
S1047      H1050   1.407       .  S
S1048      H1049   1.405       .  S
C1053      C1054   1.399       .  A
C1053      C1058   1.424       .  A
C1054      C1055   1.417       .  A
C1054      H1063   1.084       .  S
C1055      C1056   1.456       .  A
C1055      S1059   1.819       .  S
C1056      C1057   1.410       .  A
C1057      C1058   1.395       .  A
C1057      H1064   1.079       .  S
C1058      S1060   1.807       .  S
S1059      H1062   1.395       .  S
S1060      H1061   1.408       .  S
C1065      C1066   1.394       .  A
C1065      C1070   1.405       .  A
C1066      C1067   1.387       .  A
C1066      H1075   1.084       .  S
C1067      C1068   1.436       .  A
C1067      S1071   1.813       .  S
C1068      C1069   1.418       .  A
C1069      C1070   1.401       .  A
C1069      H1076   1.077       .  S
C1070      S1072   1.797       .  S
S1071      H1074   1.407       .  S
C1077      C1078   1.415       .  A
C1077      C1082   1.439       .  A
C1078      C1079   1.397       .  A
C1078      H1087   1.079       .  S
C1079      C1080   1.424       .  A
C1079      S1083   1.802       .  S
C1080      C1081   1.402       .  A
C1081      C1082   1.415       .  A
C1081      H1088   1.084       .  S
C1082      S1084   1.789       .  S
S1083      H1086   1.406       .  S
S1084      H1085   1.407       .  S
C1089      C1090   1.402       .  A
C1089      C1094   1.434       .  A
C1090      C1091   1.421       .  A
C1090      H1099   1.083       .  S
C1091      C1092   1.456       .  A
C1091      S1095   1.818       .  S
C1092      C1093   1.406       .  A
C1093      C1094   1.398       .  A
C1093      H1100   1.075       .  S
C1094      S1096   1.811       .  S
S1095      H1098   1.394       .  S
S1096      H1097   1.408       .  S
C1101      C1102   1.402       .  A
C1101      C1106   1.408       .  A
C1102      C1103   1.407       .  A
C1102      H1111   1.083       .  S
C1103      C1104   1.431       .  A
C1103      S1107   1.811       .  S
C1104      C1105   1.423       .  A
C1105      C1106   1.404       .  A
C1105      H1112   1.079       .  S
C1106      S1108   1.803       .  S
S1107      H1110   1.406       .  S
S1108      H1109   1.405       .  S
C1113      C1114   1.397       .  A
C1113      C1118   1.425       .  A
C1114      C1115   1.414       .  A
C1114      H1123   1.084       .  S
C1115      C1116   1.441       .  A
C1115      S1119   1.785       .  S
C1116      C1117   1.414       .  A
C1117      C1118   1.403       .  A
C1117      H1124   1.079       .  S
C1118      S1120   1.805       .  S
S1119      H1122   1.408       .  S
S1120      H1121   1.408       .  S
C1125      C1126   1.399       .  A
C1125      C1130   1.410       .  A
C1126      C1127   1.406       .  A
C1126      H1135   1.085       .  S
C1127      C1128   1.434       .  A
C1127      S1131   1.804       .  S
C1128      C1129   1.417       .  A
C1129      C1130   1.400       .  A
C1129      H1136   1.080       .  S
C1130      S1132   1.806       .  S
S1131      H1134   1.403       .  S
S1132      H1133   1.404       .  S
C1137      C1138   1.401       .  A
C1137      C1142   1.406       .  A
C1138      C1139   1.404       .  A
C1138      H1147   1.083       .  S
C1139      C1140   1.433       .  A
C1139      S1143   1.811       .  S
C1140      C1141   1.424       .  A
C1141      C1142   1.406       .  A
C1141      H1148   1.076       .  S
C1142      S1144   1.800       .  S
S1143      H1146   1.407       .  S
S1144      H1145   1.404       .  S
C1149      C1150   1.434       .  A
C1149      C1154   1.433       .  A
C1150      C1151   1.410       .  A
C1150      H1159   1.081       .  S
C1151      C1152   1.408       .  A
C1151      S1155   1.798       .  S
C1152      C1153   1.416       .  A
C1153      C1154   1.403       .  A
C1153      H1160   1.083       .  S
C1154      S1156   1.810       .  S
S1155      H1158   1.408       .  S
S1156      H1157   1.394       .  S
C1161      C1162   1.407       .  A
C1161      C1166   1.416       .  A
C1162      C1163   1.404       .  A
C1162      H1171   1.082       .  S
C1163      C1164   1.442       .  A
C1163      S1167   1.814       .  S
C1164      C1165   1.427       .  A
C1165      C1166   1.419       .  A
C1165      H1172   1.083       .  S
C1166      S1168   1.798       .  S
S1167      H1170   1.408       .  S
S1168      H1169   1.408       .  S
C1173      C1174   1.422       .  A
C1173      C1178   1.436       .  A
C1174      C1175   1.407       .  A
C1174      H1183   1.077       .  S
C1175      C1176   1.410       .  A
C1175      S1179   1.796       .  S
C1176      C1177   1.402       .  A
C1177      C1178   1.412       .  A
C1177      H1184   1.083       .  S
C1178      S1180   1.812       .  S
S1179      H1182   1.404       .  S
S1180      H1181   1.406       .  S
C1185      C1186   1.401       .  A
C1185      C1190   1.422       .  A
C1186      C1187   1.410       .  A
C1186      H1195   1.082       .  S
C1187      C1188   1.439       .  A
C1187      S1191   1.807       .  S
C1188      C1189   1.401       .  A
C1189      C1190   1.381       .  A
C1189      H1196   1.078       .  S
C1190      S1192   1.803       .  S
S1191      H1194   1.407       .  S
S1192      H1193   1.407       .  S
C1197      C1198   1.399       .  A
C1197      C1202   1.401       .  A
C1198      C1199   1.395       .  A
C1198      H1207   1.085       .  S
C1199      C1200   1.427       .  A
C1199      S1203   1.793       .  S
C1200      C1201   1.427       .  A
C1201      C1202   1.396       .  A
C1201      H1208   1.079       .  S
C1202      S1204   1.804       .  S
S1203      H1206   1.407       .  S
S1204      H1205   1.407       .  S
C1209      C1210   1.392       .  A
C1209      C1214   1.413       .  A
C1210      C1211   1.388       .  A
C1210      H1219   1.085       .  S
C1211      C1212   1.441       .  A
C1211      S1215   1.807       .  S
C1212      C1213   1.419       .  A
C1213      C1214   1.407       .  A
C1213      H1220   1.073       .  S
C1214      S1216   1.804       .  S
S1215      H1218   1.408       .  S
S1216      H1217   1.393       .  S
C1221      C1222   1.434       .  A
C1221      C1226   1.431       .  A
C1222      C1223   1.402       .  A
C1222      H1231   1.080       .  S
C1223      C1224   1.399       .  A
C1223      S1227   1.799       .  S
C1224      C1225   1.410       .  A
C1225      C1226   1.380       .  A
C1225      H1232   1.081       .  S
C1226      S1228   1.817       .  S
S1227      H1230   1.407       .  S
S1228      H1229   1.409       .  S
C1233      C1234   1.398       .  A
C1233      C1238   1.397       .  A
C1234      C1235   1.409       .  A
C1234      H1243   1.078       .  S
C1235      C1236   1.433       .  A
C1235      S1239   1.809       .  S
C1236      C1237   1.420       .  A
C1237      C1238   1.378       .  A
C1237      H1244   1.079       .  S
C1238      S1240   1.805       .  S
S1239      H1242   1.406       .  S
S1240      H1241   1.406       .  S
C1245      C1246   1.383       .  A
C1245      C1250   1.404       .  A
C1246      C1247   1.389       .  A
C1246      H1255   1.087       .  S
C1247      C1248   1.456       .  A
C1247      S1251   1.816       .  S
C1248      C1249   1.420       .  A
C1249      C1250   1.398       .  A
C1249      H1256   1.083       .  S
C1250      S1252   1.804       .  S
S1251      H1254   1.387       .  S
S1252      H1253   1.408       .  S
C1257      C1258   1.395       .  A
C1257      C1262   1.411       .  A
C1258      C1259   1.409       .  A
C1258      H1267   1.082       .  S
C1259      C1260   1.448       .  A
C1259      S1263   1.814       .  S
C1260      C1261   1.413       .  A
C1261      C1262   1.379       .  A
C1261      H1268   1.077       .  S
C1262      S1264   1.798       .  S
S1263      H1266   1.406       .  S
S1264      H1265   1.407       .  S
C1269      C1270   1.426       .  A
C1269      C1274   1.441       .  A
C1270      C1271   1.398       .  A
C1270      H1279   1.077       .  S
C1271      C1272   1.402       .  A
C1271      S1275   1.802       .  S
C1272      C1273   1.395       .  A
C1273      C1274   1.390       .  A
C1273      H1280   1.086       .  S
C1274      S1276   1.828       .  S
S1275      H1278   1.404       .  S
S1276      H1277   1.392       .  S
