geometry optimzed in LAMMPS
_audit_creation_date              2020-11-30 
_audit_creation_method            'lammps2cif' 
_symmetry_space_group_name_H-M    'P1' 
_symmetry_Int_Tables_number       1 
_symmetry_cell_setting            triclinic 
loop_ 
_symmetry_equiv_pos_as_xyz 
  x,y,z 
_cell_length_a                    31.41650104 
_cell_length_b                    23.885216660853057 
_cell_length_c                    40.23936567758856 
_cell_angle_alpha                 90.00211179048729 
_cell_angle_beta                  88.6090591664642 
_cell_angle_gamma                 90.30308491800076 
loop_ 
_atom_site_label 
_atom_site_type_symbol 
_atom_site_fract_x 
_atom_site_fract_y 
_atom_site_fract_z 
_atom_site_charge 
C1          C  0.98775812  0.37662254  0.08121641     0.01000
C2          C  0.57061997  0.13107389  0.33816526     0.01000
O3          O  0.62266092  0.17656722  0.22632841    -0.75000
C4          C  0.73361215  0.23901538  0.16953509     0.86000
O5          O  0.57169811  0.20283807  0.11531458    -0.76100
O6          O  0.71175215  0.13187478  0.08104424    -0.77600
O7          O  0.69554411  0.01885733  0.18233019    -0.77400
O8          O  0.62112314  0.08344622  0.22691767    -0.76000
Zn9        Zn  0.64157317  0.19769761  0.17920687     1.55700
O10         O  0.74282702  0.06061093  0.14811810    -0.77400
Cd11       Cd  0.64061345  0.06437701  0.17883874     1.59700
Cd12       Cd  0.61007641  0.13201871  0.11283372     1.59600
O13         O  0.59452542  0.01413108  0.15883482    -0.77400
O14         O  0.65048896  0.13243516  0.15092133    -1.87900
Cd15       Cd  0.71053300  0.13133550  0.13247524     1.59900
O16         O  0.57134512  0.06062795  0.11462911    -0.77400
O17         O  0.74410728  0.20075368  0.14885285    -0.76000
C18         C  0.57115292  0.24395714  0.13553388     0.86500
C19         C  0.61615216  0.13031675  0.24139865     0.86100
O20         O  0.69639593  0.24161669  0.18273385    -0.75000
C21         C  0.73236439  0.02186630  0.16858630     0.87000
O22         O  0.59610567  0.24706329  0.15998928    -0.75100
C23         C  0.57007535  0.01867629  0.13426579     0.87100
C24         C  0.68300852  0.13238149  0.05925880     0.87400
O25         O  0.64338000  0.13270652  0.06722090    -0.77500
C26         C  0.69146598  0.11073186  0.46421162     0.90000
C27         C  0.71782711  0.06238613  0.44995276    -0.50300
C28         C  0.72844228  0.06798261  0.41700427     0.12900
C29         C  0.71089653  0.12134963  0.40105661     0.23800
C30         C  0.71782183  0.16322111  0.45585331    -0.51000
C31         C  0.72826130  0.16874150  0.42285132     0.13000
C32         C  0.65240679  0.11395567  0.44203249    -0.50500
C33         C  0.66272545  0.11978078  0.40900314     0.13600
H34         H  0.72948889  0.02826426  0.46504577     0.18100
H35         H  0.71947232  0.12584693  0.37423005     0.03800
H36         H  0.72827352  0.19266609  0.47459207     0.18400
H37         H  0.61977843  0.11214078  0.45154625     0.18200
O38         O  0.92670910  0.33766682  0.47367719    -0.75000
C39         C  0.82243169  0.27102855  0.41704662     0.86000
O40         O  0.98428984  0.31213026  0.36258678    -0.76100
O41         O  0.84421790  0.38568239  0.33152929    -0.77600
O42         O  0.85580530  0.49721799  0.43071099    -0.77400
O43         O  0.92751293  0.43081225  0.47520982    -0.76000
Zn44       Zn  0.91175144  0.31750462  0.42691694     1.55700
O45         O  0.80924215  0.45111555  0.39969068    -0.77400
Cd46       Cd  0.91129521  0.45135486  0.42721863     1.59700
Cd47       Cd  0.94552673  0.38351735  0.36080849     1.59600
O48         O  0.95976601  0.50102738  0.40762083    -0.77400
O49         O  0.90332124  0.38301115  0.39935424    -1.87900
Cd50       Cd  0.84357838  0.38227438  0.38259878     1.59900
O51         O  0.98492670  0.45438962  0.36319356    -0.77400
O52         O  0.81114334  0.30999909  0.39753094    -0.76000
C53         C  0.98512882  0.27256739  0.38392957     0.86500
C54         C  0.93198791  0.38346571  0.48910650     0.86100
O55         O  0.85909919  0.27019384  0.42970781    -0.75000
C56         C  0.81892490  0.49184517  0.41860353     0.87000
O57         O  0.95938684  0.27039995  0.40874444    -0.75100
C58         C  0.98578075  0.49606494  0.38304830     0.87100
C59         C  0.87343552  0.38706221  0.30907909     0.87400
O60         O  0.91299633  0.38601816  0.31593438    -0.77500
C61         C  0.87199626  0.38962928  0.21281349     0.90000
C62         C  0.84468443  0.43994152  0.20288686    -0.50300
C63         C  0.83115406  0.43773074  0.17074677     0.12900
C64         C  0.84688564  0.38578122  0.15148695     0.23800
C65         C  0.84439356  0.33822429  0.20508118    -0.51000
C66         C  0.83080411  0.33651495  0.17307565     0.13000
C67         C  0.90858680  0.38805796  0.18702010    -0.50500
C68         C  0.89553148  0.38585942  0.15508611     0.13600
H69         H  0.83570391  0.47319669  0.22003421     0.18100
H70         H  0.83615437  0.38397396  0.12539376     0.03800
H71         H  0.83549162  0.30676908  0.22350618     0.18400
H72         H  0.94199197  0.38797247  0.19343165     0.18200
C73         C  0.49055391  0.37791675  0.13511958     0.01000
C74         C  0.07046812  0.14346021  0.38816702     0.01000
O75         O  0.12901766  0.08490381  0.99533338    -0.75800
C76         C  0.23568129  0.02349650  0.05194074     0.86000
O77         O  0.07158120  0.06127404  0.10602804    -0.76100
O78         O  0.21113717  0.13656770  0.13746486    -0.77600
O79         O  0.20063012  0.24604845  0.03679867    -0.77400
O80         O  0.12874606  0.17803173  0.99329923    -0.76000
Zn81       Zn  0.14518015  0.06561271  0.04213528     1.55700
O82         O  0.24611818  0.20279759  0.06974238    -0.77400
Cd83       Cd  0.14528215  0.19959235  0.04084269     1.59700
Cd84       Cd  0.11017123  0.13346005  0.10770518     1.59600
O85         O  0.09710522  0.24945090  0.05954983    -0.77400
O86         O  0.15273118  0.13209220  0.06934895    -1.87900
Cd87       Cd  0.21208561  0.13334127  0.08655503     1.59900
O88         O  0.07077291  0.20392116  0.10410699    -0.77400
O89         O  0.24563858  0.06277304  0.07176695    -0.76000
C90         C  0.07154221  0.02037807  0.08552794     0.86500
C91         C  0.11521763  0.14308475  0.48303299     0.86100
O92         O  0.19918729  0.02066016  0.03895729    -0.75000
C93         C  0.23699230  0.24221014  0.04984256     0.87000
O94         O  0.09796950  0.01731760  0.06113938    -0.75100
C95         C  0.07054902  0.24502802  0.08379138     0.87100
C96         C  0.18196901  0.13843132  0.15989079     0.87400
O97         O  0.14236528  0.13744219  0.15300791    -0.77500
C98         C  0.18506798  0.14522245  0.25614790     0.90000
C99         C  0.21503906  0.19400469  0.26504055    -0.50300
C100        C  0.22862169  0.19229862  0.29717497     0.12900
C101        C  0.21075466  0.14239884  0.31734570     0.23800
C102        C  0.21025261  0.09234381  0.26459992    -0.51000
C103        C  0.22412995  0.09116257  0.29653789     0.13000
C104        C  0.14882954  0.14743341  0.28222875    -0.50500
C105        C  0.16224341  0.14583322  0.31406408     0.13600
H106        H  0.22526352  0.22607789  0.24741736     0.18100
H107        H  0.22169643  0.14107389  0.34339197     0.03800
H108        H  0.21773563  0.05971314  0.24661471     0.18400
H109        H  0.11537289  0.14946193  0.27609549     0.18200
O110        O  0.36788363  0.27635461  0.29188226    -0.75000
C111        C  0.44879243  0.38074989  0.23230581     0.86000
O112        O  0.49979427  0.31460970  0.35463947    -0.76100
O113        O  0.46750221  0.50651440  0.31135426    -0.77600
O114        O  0.32461683  0.45290143  0.32911652    -0.77400
O115        O  0.32354121  0.31443223  0.32945894    -0.76000
Zn116      Zn  0.42406733  0.31672856  0.29534163     1.55700
O117        O  0.36712436  0.48946496  0.28938330    -0.77400
Cd118      Cd  0.35956682  0.38360297  0.34477562     1.59700
Cd119      Cd  0.46354921  0.38750611  0.35609650     1.59600
O120        O  0.36610827  0.38604628  0.39645638    -0.77400
O121        O  0.41767918  0.38334434  0.32241391    -1.87900
Cd122      Cd  0.42416652  0.44996386  0.29321473     1.59900
O123        O  0.43633276  0.39570107  0.40298058    -0.77400
O124        O  0.44346704  0.42842854  0.24570651    -0.76000
C125        C  0.49587581  0.27048368  0.33707622     0.86500
C126        C  0.33153480  0.27876632  0.30649413     0.86100
O127        O  0.44305210  0.33531289  0.24830375    -0.75000
C128        C  0.33183720  0.48760037  0.30545445     0.87000
O129        O  0.46794628  0.26578087  0.31480441    -0.75100
C130        C  0.39843343  0.39314941  0.41480439     0.87100
C131        C  0.49641795  0.50266177  0.33278479     0.87400
O132        O  0.50153279  0.45873448  0.35018251    -0.77500
C133        C  0.35585666  0.37599465  0.50520868     0.90000
C134        C  0.41310877  0.39017903  0.03198601    -0.50300
C135        C  0.39889806  0.38743951  0.06418308     0.12900
C136        C  0.34999778  0.38702337  0.06852267     0.23800
C137        C  0.34990876  0.33985985  0.01485629    -0.51000
C138        C  0.33509897  0.33778067  0.04702747     0.13000
C139        C  0.34947330  0.44146372  0.01725380    -0.50500
C140        C  0.33454290  0.43882458  0.04947617     0.13600
H141        H  0.44672841  0.39015851  0.02497057     0.18100
H142        H  0.33818818  0.38490208  0.09474976     0.03800
H143        H  0.31146614  0.29898473  0.50343567     0.18400
H144        H  0.32411268  0.46140477  0.49531229     0.18200
C145        C  0.39236593  0.39986834  0.45101141    -0.13000
C146        C  0.36420925  0.36854270  0.46829655    -0.28100
H147        H  0.41261211  0.42931684  0.46391671     0.16100
H148        H  0.34620026  0.33682392  0.45516881     0.16600
C149        C  0.26048049  0.23173563  0.31073142    -0.13000
C150        C  0.29803351  0.24019158  0.29479772    -0.28100
H151        H  0.25430027  0.25041444  0.33495686     0.16100
H152        H  0.30468172  0.21748556  0.27184183     0.16600
C153        C  0.25386435  0.04823444  0.30855121    -0.13000
C154        C  0.28936207  0.03640288  0.29072061    -0.28100
H155        H  0.24835238  0.02980798  0.33295467     0.16100
H156        H  0.29615835  0.05949518  0.26789058     0.16600
C157        C  0.16913369  0.14579805  0.22091416    -0.13000
C158        C  0.19597282  0.14151921  0.19464402    -0.28100
H159        H  0.13508573  0.14802499  0.21696825     0.16100
H160        H  0.22997979  0.13947457  0.19888296     0.16600
C161        C  0.30353759  0.29567513  0.05870834    -0.13000
C162        C  0.26945199  0.28414691  0.04034030    -0.28100
H163        H  0.30697271  0.27678798  0.08303543     0.16100
H164        H  0.26461943  0.30745141  0.01753462     0.16600
C165        C  0.26655255  0.48777733  0.04473395    -0.13000
C166        C  0.30113380  0.47714303  0.06274926    -0.28100
H167        H  0.26210175  0.95792355  0.01945501     0.16100
H168        H  0.30384000  0.49392027  0.08768640     0.16600
C169        C  0.13248357  0.14577809  0.34175584    -0.09800
C170        C  0.10502189  0.14497819  0.36316255    -0.11400
C171        C  0.08844474  0.14749305  0.42140357    -0.09800
C172        C  0.10186981  0.14725754  0.44925673    -0.11400
C173        C  0.42822831  0.38247291  0.09107017    -0.09800
C174        C  0.45572289  0.37888299  0.11142665    -0.11400
C175        C  0.46153276  0.37833208  0.19793598    -0.09800
C176        C  0.47318123  0.37765071  0.16919167    -0.11400
C177        C  0.04709595  0.09011023  0.38584957    -0.09800
C178        C  0.02667136  0.04704918  0.38644038    -0.11400
C179        C  0.01643472  0.22888832  0.38096238    -0.09800
C180        C  0.04131130  0.19056946  0.38287994    -0.11400
C181        C  0.85983497  0.38963460  0.27424116    -0.13000
C182        C  0.88726635  0.39088754  0.24817969    -0.28100
H183        H  0.82584726  0.38934896  0.26975325     0.16100
H184        H  0.92129442  0.39106262  0.25242796     0.16600
C185        C  0.76170517  0.03253901  0.40138087    -0.13000
C186        C  0.79903924  0.02848570  0.41663135    -0.28100
H187        H  0.75525604  0.00926281  0.37887381     0.16100
H188        H  0.80455928  0.05486859  0.43818776     0.16600
C189        C  0.79249986  0.22614824  0.42683461    -0.13000
C190        C  0.75732258  0.21315502  0.41012299    -0.28100
H191        H  0.80018452  0.20204686  0.44879938     0.16100
H192        H  0.75089542  0.23309610  0.38653482     0.16600
C193        C  0.51699132  0.42827741  0.13078123    -0.09800
C194        C  0.53939695  0.46944918  0.13070790    -0.11400
C195        C  0.54120672  0.28855290  0.13104460    -0.09800
C196        C  0.51727026  0.32800355  0.13059754    -0.11400
C197        C  0.69696836  0.13220295  0.02386545    -0.13000
C198        C  0.68261438  0.10448485  0.50107602    -0.28100
H199        H  0.73096520  0.13074045  0.01825138     0.16100
H200        H  0.69702876  0.06993353  0.51425241     0.16600
C201        C  0.76471311  0.49112588  0.17492524    -0.13000
C202        C  0.79985384  0.47756415  0.15705001    -0.28100
H203        H  0.75972706  0.47210199  0.19927559     0.16100
H204        H  0.80397520  0.49198089  0.13158316     0.16600
C205        C  0.76533701  0.28087670  0.17972202    -0.13000
C206        C  0.80017361  0.29409745  0.16125757    -0.28100
H207        H  0.75922282  0.30276588  0.20303181     0.16100
H208        H  0.80479528  0.27659611  0.13653323     0.16600
C209        C  0.63096166  0.12443754  0.38382794    -0.09800
C210        C  0.60401180  0.12802019  0.36302832    -0.11400
C211        C  0.51649979  0.04443334  0.34227193    -0.09800
C212        C  0.54163027  0.08290103  0.34200160    -0.11400
C213        C  0.52408341  0.22417907  0.34187776    -0.09800
C214        C  0.54610173  0.18289519  0.34225723    -0.11400
C215        C  0.58959280  0.13051954  0.30437333    -0.09800
C216        C  0.60249905  0.13080062  0.27581139    -0.11400
C217        C  0.95342102  0.37914912  0.10647530    -0.09800
C218        C  0.92572463  0.38221520  0.12767574    -0.11400
C219        C  0.03904542  0.28829681  0.08751693    -0.09800
C220        C  0.01466566  0.32725744  0.08640952    -0.11400
C221        C  0.01411276  0.42746929  0.08276592    -0.09800
C222        C  0.03668727  0.46853731  0.08164620    -0.11400
C223        C  0.95590176  0.37331193  0.02034774    -0.09800
C224        C  0.96930338  0.37355751  0.04817368    -0.11400
C225        C  0.97759618  0.38016582  0.58347498     0.01000
C226        C  0.56801030  0.13665815  0.83615115     0.01000
O227        O  0.61165889  0.17991194  0.72244444    -0.75000
C228        C  0.71983036  0.23840445  0.66152182     0.86000
O229        O  0.55061339  0.20427164  0.61825082    -0.76100
O230        O  0.68579155  0.13176839  0.57278484    -0.77600
O231        O  0.68474883  0.02566340  0.67867278    -0.77400
O232        O  0.61009970  0.08674225  0.72374360    -0.76000
Zn233      Zn  0.62836049  0.19992126  0.67504878     1.55700
O234        O  0.72813957  0.06353281  0.64001565    -0.77400
Cd235      Cd  0.62795325  0.06676008  0.67558437     1.59700
Cd236      Cd  0.58886991  0.13429411  0.61349873     1.59600
O237        O  0.58318754  0.01293264  0.65678740    -0.77400
O238        O  0.63470963  0.13433798  0.64716014    -1.87900
Cd239      Cd  0.69262828  0.13245599  0.62438000     1.59900
O240        O  0.55292003  0.06077857  0.61594178    -0.77400
O241        O  0.72799615  0.20247478  0.63876656    -0.76000
C242        C  0.55543347  0.24829499  0.63559823     0.86500
C243        C  0.60600849  0.13396842  0.73796033     0.86100
O244        O  0.68400791  0.24007998  0.67686863    -0.75000
C245        C  0.72045485  0.02804136  0.66317455     0.87000
O246        O  0.58431280  0.25268734  0.65712833    -0.75100
C247        C  0.55602226  0.01717254  0.63399578     0.87100
C248        C  0.65330823  0.13728955  0.55451911     0.87400
O249        O  0.61555431  0.14039424  0.56645759    -0.77500
C250        C  0.68496274  0.13206645  0.96264940     0.90000
C251        C  0.71029555  0.07939560  0.95309205    -0.50300
C252        C  0.72425785  0.07838015  0.92057511     0.12900
C253        C  0.71052361  0.12983096  0.90039747     0.23800
C254        C  0.71450004  0.18102642  0.95267315    -0.51000
C255        C  0.72830121  0.17963908  0.92012091     0.13000
C256        C  0.64860401  0.13427189  0.93801722    -0.50500
C257        C  0.66184464  0.13326161  0.90557376     0.13600
H258        H  0.71815384  0.04704619  0.97086295     0.18100
H259        H  0.72148967  0.12892820  0.87394128     0.03800
H260        H  0.72445214  0.21306762  0.97003826     0.18400
H261        H  0.61521708  0.13680681  0.94555139     0.18200
O262        O  0.93713134  0.32910482  0.97112961    -0.75000
C263        C  0.82909835  0.27144889  0.91238106     0.86000
O264        O  0.00227328  0.30529848  0.86809064    -0.76100
O265        O  0.87048870  0.37313840  0.82204797    -0.77600
O266        O  0.86592031  0.48529563  0.92549606    -0.77400
O267        O  0.93732024  0.42221390  0.97281623    -0.76000
Zn268      Zn  0.92048080  0.30934866  0.92446432     1.55700
O269        O  0.82588550  0.44720478  0.88621226    -0.77400
Cd270      Cd  0.92184867  0.44214352  0.92470480     1.59700
Cd271      Cd  0.96485215  0.37574183  0.86275021     1.59600
O272        O  0.96841061  0.49562309  0.90688751    -0.77400
O273        O  0.91668664  0.37466962  0.89626398    -1.87900
Cd274      Cd  0.86031008  0.37519129  0.87341985     1.59900
O275        O  0.00182700  0.44807205  0.86636278    -0.77400
O276        O  0.82266683  0.30698045  0.88931804    -0.76000
C277        C  0.99641373  0.26187728  0.88602870     0.86500
C278        C  0.94250551  0.37492097  0.98656473     0.86100
O279        O  0.86418563  0.26947012  0.92748361    -0.75000
C280        C  0.83229539  0.48410099  0.90854165     0.87000
O281        O  0.96555893  0.25724385  0.90692144    -0.75100
C282        C  0.99754568  0.49140050  0.88459729     0.87100
C283        C  0.90411781  0.37337262  0.80347716     0.87400
O284        O  0.94133316  0.37414546  0.81532756    -0.77500
C285        C  0.85670534  0.37656280  0.71478469     0.90000
C286        C  0.83047157  0.42776655  0.70537176    -0.50300
C287        C  0.82010246  0.42972411  0.67263197     0.12900
C288        C  0.83765707  0.38052771  0.65193949     0.23800
C289        C  0.83033142  0.32652513  0.70307383    -0.51000
C290        C  0.81998716  0.32868726  0.67029001     0.13000
C291        C  0.89595253  0.37819162  0.69097185    -0.50500
C292        C  0.88572020  0.38016326  0.65821838     0.13600
H293        H  0.81941291  0.45862983  0.72340601     0.18100
H294        H  0.82924420  0.38220817  0.62529131     0.03800
H295        H  0.81910298  0.29346617  0.71969548     0.18400
H296        H  0.92877794  0.37753909  0.69859794     0.18200
C297        C  0.47856329  0.38578456  0.63092460     0.01000
C298        C  0.07612691  0.12729989  0.88604534     0.01000
O299        O  0.11529072  0.09496504  0.49663839    -0.75800
C300        C  0.21824360  0.01593079  0.55536849     0.86000
O301        O  0.05109475  0.05865147  0.59999811    -0.76100
O302        O  0.17929706  0.11795678  0.64750836    -0.77600
O303        O  0.19989292  0.23655481  0.55154263    -0.77400
O304        O  0.12559187  0.18744537  0.49851955    -0.76000
Zn305      Zn  0.13112070  0.06609200  0.54175588     1.55700
O306        O  0.23452002  0.17743465  0.58429908    -0.77400
Cd307      Cd  0.13970963  0.20052844  0.54811795     1.59700
Cd308      Cd  0.08798333  0.12977045  0.60473692     1.59600
O309        O  0.09298108  0.25467088  0.56574370    -0.77400
O310        O  0.13725026  0.12766379  0.57244161    -1.87900
Cd311      Cd  0.19098687  0.11596859  0.59682748     1.59900
O312        O  0.05127923  0.20081499  0.59838214    -0.77400
O313        O  0.22232534  0.04356780  0.58219891    -0.76000
C314        C  0.05539705  0.01657040  0.58084954     0.86500
C315        C  0.12369702  0.13051853  0.97974174     0.86100
O316        O  0.18623586  0.02256365  0.53691261    -0.75000
C317        C  0.23342715  0.22096157  0.56618741     0.87000
O318        O  0.08455175  0.01376254  0.55835322    -0.75100
C319        C  0.05932442  0.24687482  0.58348774     0.87100
C320        C  0.14565804  0.12506359  0.66541574     0.87400
O321        O  0.10909938  0.13071412  0.65290825    -0.77500
C322        C  0.19356502  0.12958515  0.75348149     0.90000
C323        C  0.21947762  0.18130687  0.76318289    -0.50300
C324        C  0.23027592  0.18246738  0.79585704     0.12900
C325        C  0.21362008  0.13208806  0.81606989     0.23800
C326        C  0.22062077  0.08002255  0.76429166    -0.51000
C327        C  0.23131562  0.08147351  0.79694876     0.13000
C328        C  0.15470558  0.12915092  0.77762813    -0.50500
C329        C  0.16559871  0.13038032  0.81022548     0.13600
H330        H  0.22997273  0.21306615  0.74542028     0.18100
H331        H  0.22244121  0.13306304  0.84264865     0.03800
H332        H  0.23188115  0.04771629  0.74725888     0.18400
H333        H  0.12175141  0.12739628  0.77034698     0.18200
O334        O  0.36502778  0.27559097  0.78900252    -0.75000
C335        C  0.43991355  0.38781482  0.72879093     0.86000
O336        O  0.48872536  0.31386022  0.85527599    -0.76100
O337        O  0.46533812  0.50527778  0.81148367    -0.77600
O338        O  0.31640755  0.45435817  0.82134020    -0.77400
O339        O  0.31734273  0.31517653  0.82336032    -0.76000
Zn340      Zn  0.41907157  0.32025819  0.79151996     1.55700
O341        O  0.36390063  0.49829789  0.78838777    -0.77400
Cd342      Cd  0.35029898  0.38599875  0.83811456     1.59700
Cd343      Cd  0.45144505  0.38615078  0.85699451     1.59600
O344        O  0.34994319  0.38917029  0.88924620    -0.77400
O345        O  0.41025041  0.38560391  0.81953947    -1.87900
Cd346      Cd  0.41928404  0.45401627  0.79185846     1.59900
O347        O  0.41855468  0.38872928  0.90254958    -0.77400
O348        O  0.43627968  0.43469968  0.74345643    -0.76000
C349        C  0.48916165  0.27283560  0.83494185     0.86500
C350        C  0.32807266  0.27722557  0.80258102     0.86100
O351        O  0.43485457  0.34149172  0.74404490    -0.75000
C352        C  0.32668146  0.49357763  0.80118233     0.87000
O353        O  0.46474521  0.27065893  0.81013759    -0.75100
C354        C  0.37903016  0.39010248  0.91071615     0.87100
C355        C  0.49046685  0.50029283  0.83563581     0.87400
O356        O  0.49024414  0.45743585  0.85457424    -0.77500
C357        C  0.37738107  0.39159759  0.00681253     0.90000
C358        C  0.39483182  0.37403718  0.52752356    -0.50300
C359        C  0.38487339  0.38037913  0.56057344     0.12900
C360        C  0.33682674  0.38727453  0.56836207     0.23800
C361        C  0.32583135  0.33064670  0.51904992    -0.51000
C362        C  0.31536751  0.33659295  0.55197458     0.13000
C363        C  0.33344773  0.43122153  0.51393479    -0.50500
C364        C  0.32304634  0.43684900  0.54700647     0.13600
H365        H  0.42723821  0.36878625  0.51806368     0.18100
H366        H  0.32846952  0.39199695  0.59520717     0.03800
H367        H  0.34170418  0.30859692  0.99643805     0.18400
H368        H  0.34061493  0.47444296  0.00020785     0.18200
C369        C  0.36552056  0.39243457  0.94601280    -0.13000
C370        C  0.39303432  0.39331483  0.97103877    -0.28100
H371        H  0.33152353  0.39218012  0.95176796     0.16100
H372        H  0.42709701  0.39356038  0.96565758     0.16600
C373        C  0.26039434  0.22404885  0.80907413    -0.13000
C374        C  0.29697250  0.23486978  0.79233188    -0.28100
H375        H  0.25360812  0.24332408  0.83304620     0.16100
H376        H  0.30456634  0.21140363  0.76981098     0.16600
C377        C  0.26210730  0.04216491  0.81086007    -0.13000
C378        C  0.29958077  0.03464623  0.79492538    -0.28100
H379        H  0.25449341  0.02079756  0.83408302     0.16100
H380        H  0.30740072  0.05987320  0.77308084     0.16600
C381        C  0.18664240  0.12784698  0.71650667    -0.13000
C382        C  0.14870405  0.12709164  0.70187297    -0.28100
H383        H  0.21545730  0.12724510  0.70098280     0.16100
H384        H  0.11926800  0.12883849  0.71635028     0.16600
C385        C  0.27979590  0.30435392  0.56748436    -0.13000
C386        C  0.27349476  0.25067952  0.55925904    -0.28100
H387        H  0.25702150  0.32597294  0.58358595     0.16100
H388        H  0.29775951  0.22824129  0.54499937     0.16600
C389        C  0.25635141  0.48770164  0.54402934    -0.13000
C390        C  0.29297929  0.47970607  0.55975591    -0.28100
H391        H  0.24905283  0.95861911  0.51954879     0.16100
H392        H  0.29892355  0.50033975  0.58324520     0.16600
C393        C  0.13447915  0.12875023  0.83692946    -0.09800
C394        C  0.10827362  0.12750960  0.85922520    -0.11400
C395        C  0.09658688  0.12773039  0.91832416    -0.09800
C396        C  0.11045667  0.12846936  0.94597123    -0.11400
C397        C  0.41708171  0.38184995  0.58574022    -0.09800
C398        C  0.44465101  0.38367120  0.60624754    -0.11400
C399        C  0.44994448  0.38737711  0.69383048    -0.09800
C400        C  0.46028176  0.38735146  0.66476387    -0.11400
C401        C  0.04921427  0.07738487  0.88392511    -0.09800
C402        C  0.02499473  0.03815859  0.88478932    -0.11400
C403        C  0.02586124  0.21656032  0.88325841    -0.09800
C404        C  0.04935631  0.17690895  0.88344379    -0.11400
C405        C  0.90075352  0.37340655  0.76692270    -0.13000
C406        C  0.86300775  0.37439670  0.75198860    -0.28100
H407        H  0.93024184  0.37350776  0.75247151     0.16100
H408        H  0.83406927  0.37413001  0.76736846     0.16600
C409        C  0.75553595  0.03660743  0.90771373    -0.13000
C410        C  0.79005670  0.02470457  0.92549014    -0.28100
H411        H  0.75205988  0.01944699  0.88294074     0.16100
H412        H  0.79445786  0.04662969  0.94885827     0.16600
C413        C  0.79518930  0.23240435  0.92370709    -0.13000
C414        C  0.76073056  0.21911212  0.90615017    -0.28100
H415        H  0.79932755  0.21269615  0.94776654     0.16100
H416        H  0.75766543  0.23419273  0.88087265     0.16600
C417        C  0.50546440  0.43590450  0.62609293    -0.09800
C418        C  0.52925079  0.47587817  0.62654368    -0.11400
C419        C  0.52759850  0.29489958  0.63067754    -0.09800
C420        C  0.50515432  0.33555588  0.62857658    -0.11400
C421        C  0.65904541  0.14148516  0.51826322    -0.13000
C422        C  0.66967080  0.13334200  0.99865599    -0.28100
H423        H  0.64238713  0.17432836  0.50526690     0.16100
H424        H  0.63564665  0.13501901  0.00407398     0.16600
C425        C  0.75301444  0.48052410  0.67673410    -0.13000
C426        C  0.78965422  0.47098563  0.65983102    -0.28100
H427        H  0.74540306  0.45582233  0.69881645     0.16100
H428        H  0.79643243  0.49144997  0.63618333     0.16600
C429        C  0.75246869  0.27827069  0.67238323    -0.13000
C430        C  0.78898228  0.28949822  0.65566260    -0.28100
H431        H  0.74593232  0.29970934  0.69579717     0.16100
H432        H  0.79502806  0.27254686  0.63097444     0.16600
C433        C  0.63175430  0.13602366  0.87907479    -0.09800
C434        C  0.60365788  0.13756265  0.85911881    -0.11400
C435        C  0.52028420  0.04415493  0.84251304    -0.09800
C436        C  0.54228942  0.08580405  0.84180777    -0.11400
C437        C  0.51808545  0.22704551  0.83977284    -0.09800
C438        C  0.54117674  0.18666272  0.84043826    -0.11400
C439        C  0.58426068  0.13589733  0.80171384    -0.09800
C440        C  0.59476901  0.13532679  0.77269305    -0.11400
C441        C  0.94476414  0.38042758  0.61004999    -0.09800
C442        C  0.91766043  0.38062011  0.63184228    -0.11400
C443        C  0.02906536  0.29163006  0.58616520    -0.09800
C444        C  0.00476053  0.33063093  0.58618518    -0.11400
C445        C  0.00431781  0.43036988  0.58549335    -0.09800
C446        C  0.02771236  0.47048336  0.58409059    -0.11400
C447        C  0.94444159  0.38149561  0.52309997    -0.09800
C448        C  0.95764937  0.37998327  0.55095951    -0.11400
C449        C  0.98870818  0.88665365  0.08496968     0.01000
C450        C  0.56983717  0.64435303  0.33369609     0.01000
O451        O  0.62151789  0.68396021  0.22123654    -0.75000
C452        C  0.73058406  0.73885025  0.16023213     0.86000
O453        O  0.55771536  0.70287530  0.12118127    -0.76100
O454        O  0.69321707  0.63374653  0.07219041    -0.77600
O455        O  0.69615670  0.52877123  0.18053230    -0.77400
O456        O  0.61849042  0.59092910  0.22399053    -0.76000
Zn457      Zn  0.63920361  0.70166379  0.17410557     1.55700
O458        O  0.73739349  0.56257840  0.13915295    -0.77400
Cd459      Cd  0.63854623  0.56857994  0.17655743     1.59700
Cd460      Cd  0.59757445  0.63468524  0.11463741     1.59600
O461        O  0.59462303  0.51319076  0.15788889    -0.77400
O462        O  0.64468447  0.63508880  0.14720541    -1.87900
Cd463      Cd  0.70207465  0.63241653  0.12373903     1.59900
O464        O  0.56330232  0.55983782  0.11703492    -0.77400
O465        O  0.73849745  0.70195404  0.13795869    -0.76000
C466        C  0.56408342  0.74788716  0.13728348     0.86500
C467        C  0.61428164  0.63896666  0.23725928     0.86100
O468        O  0.69473373  0.74158650  0.17543052    -0.75000
C469        C  0.73102881  0.52933787  0.16374075     0.87000
O470        O  0.59517848  0.75380931  0.15662290    -0.75100
C471        C  0.56721997  0.51649405  0.13519772     0.87100
C472        C  0.66019301  0.64094648  0.05464504     0.87400
O473        O  0.62279474  0.64386086  0.06731590    -0.77500
C474        C  0.68146080  0.64240254  0.46271376     0.90000
C475        C  0.70593119  0.58875476  0.45401308    -0.50300
C476        C  0.72119740  0.58704972  0.42194811     0.12900
C477        C  0.70954978  0.63862008  0.40116978     0.23800
C478        C  0.71259832  0.69016867  0.45339574    -0.51000
C479        C  0.72759659  0.68796564  0.42112758     0.13000
C480        C  0.64628243  0.64573247  0.43716859    -0.50500
C481        C  0.66085791  0.64370931  0.40511023     0.13600
H482        H  0.71237437  0.55620077  0.47203784     0.18100
H483        H  0.72156627  0.63685337  0.37498989     0.03800
H484        H  0.72262147  0.72191577  0.47091686     0.18400
H485        H  0.61265136  0.64899546  0.44381984     0.18200
O486        O  0.93508228  0.83423657  0.47403751    -0.75000
C487        C  0.83071032  0.77571089  0.41352616     0.86000
O488        O  0.00466791  0.81118128  0.37056459    -0.76100
O489        O  0.87557036  0.87589366  0.32347578    -0.77600
O490        O  0.86555535  0.99023175  0.42589785    -0.77400
O491        O  0.93140033  0.92730034  0.47616636    -0.76000
Zn492      Zn  0.92194708  0.81404616  0.42663177     1.55700
O493        O  0.82709831  0.94996441  0.38644019    -0.77400
Cd494      Cd  0.92143179  0.94765139  0.42730673     1.59700
Cd495      Cd  0.96821350  0.88312664  0.36656078     1.59600
O496        O  0.96878854  0.00223598  0.41175738    -0.77400
O497        O  0.91852380  0.87996938  0.39875975    -1.87900
Cd498      Cd  0.86304337  0.87885242  0.37460377     1.59900
O499        O  0.00457189  0.95621073  0.37182429    -0.77400
O500        O  0.82494675  0.81089698  0.39017702    -0.76000
C501        C  0.99797911  0.76660458  0.38735969     0.86500
C502        C  0.93649730  0.88011803  0.49003956     0.86100
O503        O  0.86555572  0.77372816  0.42895509    -0.75000
C504        C  0.83236778  0.98756595  0.40855144     0.87000
O505        O  0.96737273  0.76192143  0.40856132    -0.75100
C506        C  0.99888903  0.99924662  0.39016201     0.87100
C507        C  0.90992551  0.87893923  0.30579724     0.87400
O508        O  0.94644931  0.88300691  0.31863699    -0.77500
C509        C  0.86645474  0.87422945  0.21591270     0.90000
C510        C  0.83935944  0.92451730  0.20651083    -0.50300
C511        C  0.82973279  0.92690679  0.17365204     0.12900
C512        C  0.84891504  0.87893201  0.15280285     0.23800
C513        C  0.84161379  0.82339327  0.20336000    -0.51000
C514        C  0.83205344  0.82592880  0.17042561     0.13000
C515        C  0.90627603  0.87794210  0.19274590    -0.50500
C516        C  0.89681231  0.88038444  0.15980168     0.13600
H517        H  0.82753346  0.95474795  0.22464190     0.18100
H518        H  0.84110466  0.88094981  0.12604160     0.03800
H519        H  0.83033267  0.78980434  0.21958054     0.18400
H520        H  0.93886228  0.87808316  0.20097593     0.18200
C521        C  0.48803964  0.88608764  0.13607366     0.01000
C522        C  0.07168774  0.62586605  0.38140041     0.01000
O523        O  0.12628756  0.58492306  0.99270845    -0.75800
C524        C  0.23216901  0.52671477  0.05473920     0.86000
O525        O  0.05821070  0.55965202  0.09499289    -0.76100
O526        O  0.18787278  0.62984451  0.14347135    -0.77600
O527        O  0.19983141  0.73693874  0.03666699    -0.77400
O528        O  0.12452655  0.67811999  0.99175321    -0.76000
Zn529      Zn  0.14168837  0.56469812  0.03980171     1.55700
O530        O  0.23740818  0.70062493  0.07782516    -0.77400
Cd531      Cd  0.14140246  0.69826447  0.03958711     1.59700
Cd532      Cd  0.09529873  0.63127314  0.10017267     1.59600
O533        O  0.09670783  0.75408026  0.05830112    -0.77400
O534        O  0.14484035  0.63034371  0.06793365    -1.87900
Cd535      Cd  0.20024832  0.63100195  0.09215744     1.59900
O536        O  0.05940245  0.70392368  0.09584261    -0.77400
O537        O  0.23727391  0.56178641  0.07828205    -0.76000
C538        C  0.06509923  0.51555130  0.07790169     0.86500
C539        C  0.11320878  0.62777122  0.47710702     0.86100
O540        O  0.19819254  0.52520443  0.03810569    -0.75000
C541        C  0.23333691  0.73499757  0.05376571     0.87000
O542        O  0.09638134  0.51146578  0.05733959    -0.75100
C543        C  0.06598252  0.74880978  0.07931139     0.87100
C544        C  0.15336158  0.62933403  0.16106926     0.87400
O545        O  0.11681588  0.63009414  0.14811748    -0.77500
C546        C  0.19589851  0.62352629  0.25125067     0.90000
C547        C  0.22170549  0.67478124  0.26157539    -0.50300
C548        C  0.23094806  0.67631286  0.29450650     0.12900
C549        C  0.21278874  0.62646327  0.31453203     0.23800
C550        C  0.22174805  0.57352251  0.26316389    -0.51000
C551        C  0.23109590  0.57522151  0.29617550     0.13000
C552        C  0.15581274  0.62404534  0.27426228    -0.50500
C553        C  0.16492891  0.62551915  0.30732159     0.13600
H554        H  0.23304810  0.70635556  0.24398795     0.18100
H555        H  0.22035435  0.62779791  0.34135805     0.03800
H556        H  0.23357361  0.54102782  0.24649991     0.18400
H557        H  0.12332998  0.62273825  0.26582004     0.18200
O558        O  0.36343384  0.77515719  0.28877841    -0.75000
C559        C  0.44129726  0.89043129  0.23164356     0.86000
O560        O  0.48487846  0.81638749  0.35666272    -0.76100
O561        O  0.46037592  0.00640104  0.31343336    -0.77600
O562        O  0.31076532  0.95524298  0.32054557    -0.77400
O563        O  0.31349035  0.81450579  0.32122679    -0.76000
Zn564      Zn  0.41619266  0.82190891  0.29261921     1.55700
O565        O  0.35880664  0.00053310  0.28874846    -0.77400
Cd566      Cd  0.34459666  0.88609561  0.33713504     1.59700
Cd567      Cd  0.44546249  0.88701165  0.35869625     1.59600
O568        O  0.34220822  0.88575155  0.38823234    -0.77400
O569        O  0.40538543  0.88689130  0.32045915    -1.87900
Cd570      Cd  0.41435870  0.95602843  0.29334154     1.59900
O571        O  0.41022451  0.88596705  0.40337954    -0.77400
O572        O  0.43507924  0.93720837  0.24587028    -0.76000
C573        C  0.48667541  0.77624301  0.33574278     0.86500
C574        C  0.32592828  0.77600521  0.30139274     0.86100
O575        O  0.43517678  0.84397759  0.24642258    -0.75000
C576        C  0.32126863  0.99529013  0.30097538     0.87000
O577        O  0.46227577  0.77371105  0.31103206    -0.75100
C578        C  0.37031097  0.88548217  0.41048186     0.87100
C579        C  0.48534926  0.00104619  0.33762469     0.87400
O580        O  0.48416901  0.95866980  0.35697737    -0.77500
C581        C  0.36519160  0.88241072  0.50661501     0.90000
C582        C  0.41188914  0.87883516  0.03308743    -0.50300
C583        C  0.39724927  0.87979043  0.06512964     0.12900
C584        C  0.34843985  0.87847987  0.06929155     0.23800
C585        C  0.34939423  0.82545567  0.01752452    -0.51000
C586        C  0.33411361  0.82663316  0.04968554     0.13000
C587        C  0.34812322  0.92718145  0.01612374    -0.50500
C588        C  0.33302825  0.92779035  0.04824076     0.13600
H589        H  0.44559161  0.87977790  0.02632913     0.18100
H590        H  0.33645470  0.87932206  0.09549714     0.03800
H591        H  0.33210987  0.79720455  0.49686358     0.18400
H592        H  0.32532859  0.96260208  0.49923791     0.18200
C593        C  0.35515821  0.88413407  0.44544247    -0.13000
C594        C  0.38165014  0.88494870  0.47107126    -0.28100
H595        H  0.32100471  0.88207761  0.45036931     0.16100
H596        H  0.41581763  0.88726154  0.46632695     0.16600
C597        C  0.26026999  0.71856355  0.30816628    -0.13000
C598        C  0.29627214  0.73188726  0.29121440    -0.28100
H599        H  0.25305711  0.73710686  0.33227314     0.16100
H600        H  0.30461425  0.70905716  0.26861573     0.16600
C601        C  0.26214177  0.53670950  0.31101959    -0.13000
C602        C  0.29872758  0.52608480  0.29438022    -0.28100
H603        H  0.25619110  0.52008593  0.33581750     0.16100
H604        H  0.30512206  0.54726136  0.27083244     0.16600
C605        C  0.19138898  0.62268493  0.21384277    -0.13000
C606        C  0.15473466  0.62786841  0.19775817    -0.28100
H607        H  0.22093693  0.61971760  0.19932232     0.16100
H608        H  0.12476607  0.63159061  0.21140938     0.16600
C609        C  0.30142810  0.78664196  0.06256874    -0.13000
C610        C  0.26831759  0.77307100  0.04362293    -0.28100
H611        H  0.30270280  0.77221681  0.08810851     0.16100
H612        H  0.26593538  0.79229391  0.01923989     0.16600
C613        C  0.26733222  0.98093777  0.04232784    -0.13000
C614        C  0.30152978  0.96918700  0.06042490    -0.28100
H615        H  0.26315887  0.46665076  0.02099428     0.16100
H616        H  0.30542629  0.98792494  0.08475592     0.16600
C617        C  0.13226248  0.62547779  0.33328604    -0.09800
C618        C  0.10498313  0.62545272  0.35502846    -0.11400
C619        C  0.09081349  0.62363411  0.41429249    -0.09800
C620        C  0.10246987  0.62471815  0.44265991    -0.11400
C621        C  0.42618909  0.88255142  0.09208843    -0.09800
C622        C  0.45367050  0.88462010  0.11234307    -0.11400
C623        C  0.45615389  0.89004924  0.19785581    -0.09800
C624        C  0.46981860  0.88901083  0.16970429    -0.11400
C625        C  0.04283245  0.57758155  0.37789395    -0.09800
C626        C  0.01750670  0.53924192  0.37825049    -0.11400
C627        C  0.02553914  0.71945060  0.38217365    -0.09800
C628        C  0.04697569  0.67775016  0.37989500    -0.11400
C629        C  0.90826297  0.87815878  0.26913046    -0.13000
C630        C  0.87148044  0.87204664  0.25323827    -0.28100
H631        H  0.93801081  0.88377575  0.25537125     0.16100
H632        H  0.84215548  0.86728450  0.26790298     0.16600
C633        C  0.75188058  0.54414219  0.41030519    -0.13000
C634        C  0.78661215  0.53368466  0.42809872    -0.28100
H635        H  0.74747516  0.52414348  0.38639348     0.16100
H636        H  0.79223378  0.55814778  0.45038043     0.16600
C637        C  0.79616482  0.73736942  0.42480407    -0.13000
C638        C  0.76108286  0.72625382  0.40746051    -0.28100
H639        H  0.79998748  0.71696639  0.44869768     0.16100
H640        H  0.75812512  0.74228683  0.38238062     0.16600
C641        C  0.51547461  0.93516740  0.13022593    -0.09800
C642        C  0.53962317  0.97462985  0.12942885    -0.11400
C643        C  0.53550282  0.79391928  0.13379414    -0.09800
C644        C  0.51342750  0.83500691  0.13326059    -0.11400
C645        C  0.66482073  0.64686770  0.01834317    -0.13000
C646        C  0.66453213  0.64366330  0.49820002    -0.28100
H647        H  0.64775115  0.68012894  0.00606622     0.16100
H648        H  0.63039435  0.64689368  0.50275412     0.16600
C649        C  0.76363192  0.97984448  0.17833174    -0.13000
C650        C  0.79927808  0.96803331  0.16066405    -0.28100
H651        H  0.75661273  0.95696684  0.20119765     0.16100
H652        H  0.80514157  0.98647317  0.13630878     0.16600
C653        C  0.76339448  0.77875490  0.17081606    -0.13000
C654        C  0.80125060  0.78690269  0.15539662    -0.28100
H655        H  0.75600661  0.80256681  0.19326520     0.16100
H656        H  0.80877886  0.76722398  0.13167408     0.16600
C657        C  0.63187757  0.64515359  0.37793677    -0.09800
C658        C  0.60444403  0.64552804  0.35747705    -0.11400
C659        C  0.52388859  0.55014876  0.33721249    -0.09800
C660        C  0.54501393  0.59248417  0.33773519    -0.11400
C661        C  0.51738661  0.73216309  0.33936356    -0.09800
C662        C  0.54179536  0.69310668  0.33847719    -0.11400
C663        C  0.58776032  0.64499421  0.29979606    -0.09800
C664        C  0.60056809  0.64267510  0.27136935    -0.11400
C665        C  0.95617677  0.88504082  0.11183534    -0.09800
C666        C  0.92921348  0.88321444  0.13375334    -0.11400
C667        C  0.03777676  0.79546071  0.08424937    -0.09800
C668        C  0.01521394  0.83621195  0.08615883    -0.11400
C669        C  0.01604841  0.93660037  0.08845216    -0.09800
C670        C  0.04041276  0.97604012  0.08914452    -0.11400
C671        C  0.95366921  0.88635857  0.02492526    -0.09800
C672        C  0.96808460  0.88771024  0.05251993    -0.11400
C673        C  0.97624896  0.88017206  0.58556313     0.01000
C674        C  0.57133311  0.63475313  0.83881978     0.01000
O675        O  0.61472306  0.67919667  0.72494620    -0.75000
C676        C  0.72122141  0.74332215  0.66731694     0.86000
O677        O  0.56151237  0.70393437  0.61306611    -0.76100
O678        O  0.70310090  0.63504258  0.58119116    -0.77600
O679        O  0.68445625  0.51886283  0.68001788    -0.77400
O680        O  0.61331975  0.58602932  0.72616248    -0.76000
Zn681      Zn  0.63036276  0.69952331  0.67730994     1.55700
O682        O  0.73288992  0.56303099  0.64795954    -0.77400
Cd683      Cd  0.62980506  0.56580320  0.67748017     1.59700
Cd684      Cd  0.60048648  0.63352777  0.61092234     1.59600
O685        O  0.58236998  0.51659983  0.65775007    -0.77400
O686        O  0.64000775  0.63391270  0.64958610    -1.87900
Cd687      Cd  0.70052731  0.63345776  0.63226697     1.59900
O688        O  0.56227657  0.56132927  0.61190972    -0.77400
O689        O  0.73325998  0.70352797  0.64828680    -0.76000
C690        C  0.55990800  0.74448249  0.63366942     0.86500
C691        C  0.60962093  0.63323153  0.74055123     0.86100
O692        O  0.68354093  0.74593751  0.67946559    -0.75000
C693        C  0.72180087  0.52290062  0.66723911     0.87000
O694        O  0.58397331  0.74729925  0.65863097    -0.75100
C695        C  0.55943058  0.52025467  0.63217814     0.87100
C696        C  0.67515192  0.63684878  0.55888531     0.87400
O697        O  0.63525749  0.63659656  0.56596244    -0.77500
C698        C  0.69543727  0.61660721  0.96330223     0.90000
C699        C  0.72105760  0.56763710  0.94912445    -0.50300
C700        C  0.73150548  0.57236112  0.91614367     0.12900
C701        C  0.71404216  0.62562523  0.89989122     0.23800
C702        C  0.72205889  0.66860697  0.95430961    -0.51000
C703        C  0.73229808  0.67326352  0.92116243     0.13000
C704        C  0.65603891  0.61997887  0.94150703    -0.50500
C705        C  0.66581184  0.62497153  0.90829965     0.13600
H706        H  0.73225246  0.53337633  0.96433888     0.18100
H707        H  0.72226539  0.62934738  0.87296686     0.03800
H708        H  0.73302340  0.69811964  0.97281719     0.18400
H709        H  0.62356986  0.61874686  0.95139146     0.18200
O710        O  0.93483788  0.83823303  0.97659860    -0.75000
C711        C  0.82904472  0.77253671  0.91531744     0.86000
O712        O  0.99663635  0.80746960  0.86999655    -0.76100
O713        O  0.86623447  0.88251937  0.82590953    -0.77600
O714        O  0.85912674  0.98971215  0.93053071    -0.77400
O715        O  0.93354362  0.93139051  0.97639996    -0.76000
Zn716      Zn  0.91862226  0.81559508  0.92971605     1.55700
O717        O  0.81819267  0.94789669  0.89322095    -0.77400
Cd718      Cd  0.91665301  0.94885546  0.92821675     1.59700
Cd719      Cd  0.96046754  0.87954873  0.86695460     1.59600
O720        O  0.96341949  0.00150224  0.90933039    -0.77400
O721        O  0.91259703  0.87984415  0.90070583    -1.87900
Cd722      Cd  0.85606460  0.87955099  0.87771766     1.59900
O723        O  0.99918715  0.94917185  0.87213313    -0.77400
O724        O  0.82196894  0.80729485  0.89193565    -0.76000
C725        C  0.99262723  0.76525538  0.88913007     0.86500
C726        C  0.93964370  0.88516715  0.99112588     0.86100
O727        O  0.86326047  0.77364698  0.93165961    -0.75000
C728        C  0.82419475  0.98543248  0.91531834     0.87000
O729        O  0.96413597  0.76272902  0.91214118    -0.75100
C730        C  0.99433591  0.99407190  0.88881178     0.87100
C731        C  0.90008035  0.88358751  0.80750097     0.87400
O732        O  0.93711062  0.88249989  0.81961359    -0.77500
C733        C  0.85535497  0.88974203  0.71769205     0.90000
C734        C  0.83063594  0.94088567  0.70584414    -0.50300
C735        C  0.82098236  0.93957855  0.67286699     0.12900
C736        C  0.83778960  0.88748309  0.65448747     0.23800
C737        C  0.82806007  0.83964993  0.70752357    -0.51000
C738        C  0.81858973  0.83851879  0.67461506     0.13000
C739        C  0.89516688  0.88721432  0.69437453    -0.50500
C740        C  0.88564912  0.88598755  0.66139589     0.13600
H741        H  0.81959467  0.97377878  0.72254427     0.18100
H742        H  0.82995219  0.88639642  0.62770775     0.03800
H743        H  0.81602516  0.80855490  0.72514414     0.18400
H744        H  0.92777120  0.88641488  0.70252642     0.18200
C745        C  0.47973750  0.87852812  0.63370487     0.01000
C746        C  0.07351675  0.63078344  0.88341249     0.01000
O747        O  0.11853161  0.58254231  0.49309086    -0.75800
C748        C  0.22308059  0.52747905  0.55455542     0.86000
O749        O  0.05128987  0.56024013  0.59747186    -0.76100
O750        O  0.18199415  0.63484446  0.64283910    -0.77600
O751        O  0.18955563  0.73879487  0.53568525    -0.77400
O752        O  0.11648299  0.67560380  0.49075848    -0.76000
Zn753      Zn  0.13252598  0.56448028  0.54056186     1.55700
O754        O  0.22898872  0.70176092  0.57550307    -0.77400
Cd755      Cd  0.13186989  0.69777923  0.53879978     1.59700
Cd756      Cd  0.08859979  0.63127049  0.60129795     1.59600
O757        O  0.08564199  0.75176998  0.55743014    -0.77400
O758        O  0.13668888  0.63080941  0.56787483    -1.87900
Cd759      Cd  0.19266701  0.63276906  0.59126801     1.59900
O760        O  0.05181329  0.70212891  0.59715812    -0.77400
O761        O  0.22956259  0.56361611  0.57729737    -0.76000
C762        C  0.05673021  0.51650847  0.57987274     0.86500
C763        C  0.12041943  0.63091096  0.97755419     0.86100
O764        O  0.18825953  0.52503540  0.53916911    -0.75000
C765        C  0.22377935  0.73668774  0.55192628     0.87000
O766        O  0.08695880  0.51210724  0.55841148    -0.75100
C767        C  0.05629623  0.74617448  0.57962997     0.87100
C768        C  0.14799994  0.63423491  0.66105169     0.87400
O769        O  0.11112468  0.63242469  0.64876290    -0.77500
C770        C  0.19276315  0.63689148  0.75053581     0.90000
C771        C  0.21950840  0.68700983  0.76152789    -0.50300
C772        C  0.22936623  0.68623692  0.79436682     0.12900
C773        C  0.21104540  0.63570403  0.81354643     0.23800
C774        C  0.21821567  0.58572098  0.76105863    -0.51000
C775        C  0.22816717  0.58521520  0.79388927     0.13000
C776        C  0.15315929  0.63713876  0.77411961    -0.50500
C777        C  0.16311605  0.63649911  0.80702431     0.13600
H778        H  0.23137833  0.71905089  0.74445581     0.18100
H779        H  0.21924902  0.63520626  0.84025955     0.03800
H780        H  0.22918881  0.55382849  0.74364130     0.18400
H781        H  0.12045036  0.63769325  0.76619034     0.18200
O782        O  0.36750539  0.77053531  0.79197514    -0.75000
C783        C  0.44296243  0.88037469  0.73179853     0.86000
O784        O  0.49290018  0.81311495  0.85748418    -0.76100
O785        O  0.46817265  0.00013644  0.81232333    -0.77600
O786        O  0.32035598  0.95382261  0.82489520    -0.77400
O787        O  0.31843718  0.81476830  0.82282531    -0.76000
Zn788      Zn  0.42157759  0.81509778  0.79498348     1.55700
O789        O  0.36750493  0.99549959  0.79066308    -0.77400
Cd790      Cd  0.35251929  0.88283622  0.83957434     1.59700
Cd791      Cd  0.45356931  0.88344082  0.85949276     1.59600
O792        O  0.35117172  0.87957262  0.89038985    -0.77400
O793        O  0.41269400  0.88159391  0.82187551    -1.87900
Cd794      Cd  0.42187322  0.94905768  0.79357749     1.59900
O795        O  0.41955473  0.88049025  0.90445084    -0.77400
O796        O  0.43846854  0.92790196  0.74554304    -0.76000
C797        C  0.49281361  0.77081775  0.83810969     0.86500
C798        C  0.32968011  0.77485063  0.80363786     0.86100
O799        O  0.43826011  0.83470961  0.74772957    -0.75000
C800        C  0.33081213  0.99265156  0.80453633     0.87000
O801        O  0.46725538  0.76655964  0.81414304    -0.75100
C802        C  0.37986388  0.87885446  0.91211161     0.87100
C803        C  0.49165395  0.99794592  0.83756349     0.87400
O804        O  0.49045479  0.95696538  0.85796964    -0.77500
C805        C  0.37650665  0.87677899  0.00777941     0.90000
C806        C  0.40078945  0.88426708  0.53184691    -0.50300
C807        C  0.38664097  0.88165069  0.56398913     0.12900
C808        C  0.33788370  0.87780986  0.56831595     0.23800
C809        C  0.33965476  0.82903890  0.51511072    -0.51000
C810        C  0.32490643  0.82699673  0.54740008     0.13000
C811        C  0.33520117  0.93052924  0.51652170    -0.50500
C812        C  0.32028640  0.92764445  0.54873376     0.13600
H813        H  0.43440824  0.88653745  0.52491765     0.18100
H814        H  0.32617857  0.87577923  0.59457525     0.03800
H815        H  0.34148378  0.79244701  0.00012314     0.18400
H816        H  0.33980089  0.95877028  0.99800745     0.18200
C817        C  0.36566047  0.87630063  0.94711421    -0.13000
C818        C  0.39276790  0.87641341  0.97229860    -0.28100
H819        H  0.33157611  0.87529802  0.95250489     0.16100
H820        H  0.42690407  0.87752739  0.96725089     0.16600
C821        C  0.26026002  0.72575662  0.80846388    -0.13000
C822        C  0.29815232  0.73345324  0.79299314    -0.28100
H823        H  0.25257252  0.74666783  0.83178908     0.16100
H824        H  0.30628620  0.70849709  0.77115674     0.16600
C825        C  0.25844351  0.54466137  0.80752365    -0.13000
C826        C  0.29481798  0.53405794  0.79060004    -0.28100
H827        H  0.25214830  0.52634681  0.83185643     0.16100
H828        H  0.30203686  0.55698472  0.76777645     0.16600
C829        C  0.18749937  0.63720138  0.71322788    -0.13000
C830        C  0.15029218  0.63548797  0.69767390    -0.28100
H831        H  0.21683147  0.63789318  0.69831651     0.16100
H832        H  0.12047701  0.63435978  0.71172149     0.16600
C833        C  0.29304172  0.78545605  0.55945778    -0.13000
C834        C  0.25827288  0.77538623  0.54162618    -0.28100
H835        H  0.29608666  0.76749740  0.58406688     0.16100
H836        H  0.25435597  0.79770755  0.51834595     0.16600
C837        C  0.25196304  0.97686410  0.54414525    -0.13000
C838        C  0.28618052  0.96450444  0.56224370    -0.28100
H839        H  0.24993325  0.46290697  0.52201385     0.16100
H840        H  0.28829672  0.97917130  0.58769176     0.16600
C841        C  0.13135544  0.63587180  0.83355851    -0.09800
C842        C  0.10532700  0.63432784  0.85613593    -0.11400
C843        C  0.09439643  0.62977644  0.91563847    -0.09800
C844        C  0.10780287  0.62964659  0.94350207    -0.11400
C845        C  0.41613453  0.88000193  0.59082924    -0.09800
C846        C  0.44414483  0.87859128  0.61079875    -0.11400
C847        C  0.45350223  0.87838192  0.69707881    -0.09800
C848        C  0.46357039  0.87798759  0.66804016    -0.11400
C849        C  0.04836768  0.57928164  0.88015402    -0.09800
C850        C  0.02637826  0.53772425  0.88036457    -0.11400
C851        C  0.02129535  0.71893172  0.88482560    -0.09800
C852        C  0.04506486  0.67939574  0.88282374    -0.11400
C853        C  0.89755074  0.88577019  0.77082339    -0.13000
C854        C  0.86049481  0.89031587  0.75515059    -0.28100
H855        H  0.92727552  0.88298492  0.75677739     0.16100
H856        H  0.83123174  0.89294857  0.77004272     0.16600
C857        C  0.76400158  0.53531689  0.90063500    -0.13000
C858        C  0.79987022  0.52597593  0.91724489    -0.28100
H859        H  0.75842813  0.51585775  0.87674615     0.16100
H860        H  0.80529256  0.54951027  0.93993084     0.16600
C861        C  0.79704933  0.73013467  0.92542051    -0.13000
C862        C  0.76267282  0.71610323  0.90792204    -0.28100
H863        H  0.80271610  0.70850583  0.94865816     0.16100
H864        H  0.75811986  0.73346760  0.88333761     0.16600
C865        C  0.50559204  0.92932134  0.62896382    -0.09800
C866        C  0.52779688  0.97067789  0.62909809    -0.11400
C867        C  0.53007306  0.78905234  0.62896556    -0.09800
C868        C  0.50650850  0.82885501  0.62869725    -0.11400
C869        C  0.69057279  0.63900633  0.52397297    -0.13000
C870        C  0.68762352  0.61023348  0.00032159    -0.28100
H871        H  0.72469520  0.63604671  0.51918226     0.16100
H872        H  0.70225411  0.57533290  0.01303798     0.16600
C873        C  0.75346531  0.98931336  0.67439706    -0.13000
C874        C  0.79040249  0.97898302  0.65813523    -0.28100
H875        H  0.74666054  0.96760501  0.69771048     0.16100
H876        H  0.79683018  0.99616454  0.63353597     0.16600
C877        C  0.75159584  0.78672462  0.67727904    -0.13000
C878        C  0.78850643  0.79733626  0.66093375    -0.28100
H879        H  0.74325996  0.81098003  0.69934729     0.16100
H880        H  0.79604053  0.77725997  0.63732129     0.16600
C881        C  0.63339098  0.62938708  0.88343572    -0.09800
C882        C  0.60566440  0.63255570  0.86312860    -0.11400
C883        C  0.52012157  0.54513029  0.84126592    -0.09800
C884        C  0.54373892  0.58514013  0.84236023    -0.11400
C885        C  0.52244061  0.72592161  0.84300030    -0.09800
C886        C  0.54552624  0.68555654  0.84342253    -0.11400
C887        C  0.58902899  0.63510479  0.80468337    -0.09800
C888        C  0.59937453  0.63461381  0.77556521    -0.11400
C889        C  0.94424835  0.88098339  0.61284373    -0.09800
C890        C  0.91783185  0.88299782  0.63516499    -0.11400
C891        C  0.02712022  0.79135431  0.58503942    -0.09800
C892        C  0.00334087  0.83065811  0.58749494    -0.11400
C893        C  0.00315926  0.93027611  0.58674235    -0.09800
C894        C  0.02650217  0.97038277  0.58482700    -0.11400
C895        C  0.94498345  0.87888749  0.52480284    -0.09800
C896        C  0.95588882  0.87917173  0.55328490    -0.11400
loop_ 
_geom_bond_atom_site_label_1 
_geom_bond_atom_site_label_2 
_geom_bond_distance 
_geom_bond_site_symmetry_2 
_ccdc_geom_bond_type 
C1          C217   1.466       .  S
C1          C220   1.472   1_655  S
C1          C221   1.468   1_655  S
C1          C224   1.465       .  S
C2          C210   1.469       .  S
C2          C212   1.469       .  S
C2          C214   1.468       .  S
C2          C215   1.471       .  S
O3           C19   1.273       .  A
O3           Zn9   2.036       .  S
C4           O20   1.274       .  A
C4           O17   1.275       .  A
C4          C205   1.473       .  S
O5           C18   1.275       .  A
O5          Cd12   2.083       .  S
O6           C24   1.274       .  A
O6          Cd15   2.069       .  S
O7           C21   1.272       .  A
O7          Cd11   2.052       .  S
O8           C19   1.271       .  A
O8          Cd11   2.067       .  S
Zn9          O20   2.020       .  S
Zn9          O22   2.025       .  S
Zn9          O14   1.948       .  S
O10          C21   1.275       .  A
O10         Cd15   2.080       .  S
Cd11         O13   2.055       .  S
Cd11         O14   1.995       .  S
Cd12         O16   2.090       .  S
Cd12         O25   2.091       .  S
Cd12         O14   2.014       .  S
O13          C23   1.272       .  A
O14         Cd15   2.011       .  S
Cd15         O17   2.076       .  S
O16          C23   1.276       .  A
C18          O22   1.275       .  A
C18         C195   1.439       .  S
C19         C216   1.440       .  S
C21         C649   1.468   1_545  S
C23         C642   1.435   1_545  S
C24          O25   1.278       .  A
C24         C197   1.480       .  S
C26          C27   1.528       .  S
C26          C32   1.537       .  S
C26          C30   1.532       .  S
C26         C198   1.510       .  S
C27          H34   1.087       .  S
C27          C28   1.366       .  D
C28          C29   1.538       .  S
C28         C185   1.477       .  S
C29          C33   1.539       .  S
C29          C31   1.538       .  S
C29          H35   1.111       .  S
C30          H36   1.087       .  S
C30          C31   1.366       .  D
C31         C190   1.479       .  S
C32          H37   1.086       .  S
C32          C33   1.367       .  D
C33         C209   1.444       .  S
O38          C54   1.270       .  A
O38         Zn44   2.008       .  S
C39          O55   1.271       .  A
C39          O52   1.275       .  A
C39         C189   1.470       .  S
O40          C53   1.278       .  A
O40         Cd47   2.103       .  S
O41          C59   1.272       .  A
O41         Cd50   2.056       .  S
O42          C56   1.274       .  A
O42         Cd46   2.066       .  S
O43          C54   1.272       .  A
O43         Cd46   2.069       .  S
Zn44         O55   1.999       .  S
Zn44         O57   2.001       .  S
Zn44         O49   1.941       .  S
O45          C56   1.275       .  A
O45         Cd50   2.079       .  S
Cd46         O48   2.067       .  S
Cd46         O49   1.998       .  S
Cd47         O51   2.095       .  S
Cd47         O60   2.097       .  S
Cd47         O49   2.016       .  S
O48          C58   1.273       .  A
O49         Cd50   2.010       .  S
Cd50         O52   2.081       .  S
O51          C58   1.277       .  A
C53          O57   1.270       .  A
C53         C179   1.441   1_655  S
C54         C447   1.433       .  S
C56         C634   1.472       .  S
C58         C626   1.440   1_655  S
C59          O60   1.280       .  A
C59         C181   1.477       .  S
C61          C62   1.539       .  S
C61          C67   1.531       .  S
C61          C65   1.536       .  S
C61         C182   1.513       .  S
C62          H69   1.086       .  S
C62          C63   1.372       .  D
C63          C64   1.540       .  S
C63         C202   1.487       .  S
C64          C68   1.539       .  S
C64          C66   1.539       .  S
C64          H70   1.111       .  S
C65          H71   1.086       .  S
C65          C66   1.367       .  D
C66         C206   1.480       .  S
C67          H72   1.087       .  S
C67          C68   1.359       .  D
C68         C218   1.440       .  S
C73         C174   1.469       .  S
C73         C176   1.463       .  S
C73         C193   1.466       .  S
C73         C196   1.470       .  S
C74         C170   1.462       .  S
C74         C171   1.467       .  S
C74         C177   1.471       .  S
C74         C180   1.473       .  S
O75         C315   1.271       .  A
O75         Zn81   2.016   1_556  S
C76          O92   1.273       .  A
C76          O89   1.274       .  A
C76         C613   1.471   1_545  S
O77          C90   1.279       .  A
O77         Cd84   2.105       .  S
O78          C96   1.271       .  A
O78         Cd87   2.050       .  S
O79          C93   1.272       .  A
O79         Cd83   2.061       .  S
O80         C315   1.270       .  A
O80         Cd83   2.059   1_556  S
Zn81         O92   2.014       .  S
Zn81         O94   2.011       .  S
Zn81         O86   1.946       .  S
O82          C93   1.274       .  A
O82         Cd87   2.073       .  S
Cd83         O85   2.059       .  S
Cd83         O86   1.997       .  S
Cd84         O88   2.101       .  S
Cd84         O97   2.108       .  S
Cd84         O86   2.018       .  S
O85          C95   1.272       .  A
O86         Cd87   2.005       .  S
Cd87         O89   2.072       .  S
O88          C95   1.278       .  A
C90          O94   1.272       .  A
C90         C670   1.443   1_545  S
C91         O299   1.273       .  A
C91         O304   1.274       .  A
C91         C172   1.436       .  S
C93         C162   1.470       .  S
C95         C219   1.440       .  S
C96          O97   1.281       .  A
C96         C158   1.478       .  S
C98          C99   1.542       .  S
C98         C104   1.531       .  S
C98         C102   1.536       .  S
C98         C157   1.515       .  S
C99         H106   1.086       .  S
C99         C100   1.372       .  D
C100        C101   1.538       .  S
C100        C149   1.484       .  S
C101        C105   1.536       .  S
C101        C103   1.537       .  S
C101        H107   1.111       .  S
C102        H108   1.086       .  S
C102        C103   1.367       .  D
C103        C153   1.480       .  S
C104        H109   1.087       .  S
C104        C105   1.359       .  D
C105        C169   1.437       .  S
O110        C126   1.273       .  A
O110       Zn116   2.015       .  S
C111        O127   1.272       .  A
C111        O124   1.270       .  A
C111        C175   1.432       .  S
O112        C125   1.276       .  A
O112       Cd119   2.086       .  S
O113        C131   1.271       .  A
O113       Cd122   2.059       .  S
O114        C128   1.278       .  A
O114       Cd118   2.096       .  S
O115        C126   1.278       .  A
O115       Cd118   2.099       .  S
Zn116       O127   2.019       .  S
Zn116       O129   2.016       .  S
Zn116       O121   1.937       .  S
O117        C128   1.270       .  A
O117       Cd122   2.039       .  S
Cd118       O120   2.095       .  S
Cd118       O121   2.016       .  S
Cd119       O123   2.062       .  S
Cd119       O132   2.083       .  S
Cd119       O121   2.004       .  S
O120        C130   1.281       .  A
O121       Cd122   1.985       .  S
Cd122       O124   2.058       .  S
O123        C130   1.273       .  A
C125        O129   1.274       .  A
C125        C213   1.437       .  S
C126        C150   1.481       .  S
C128        C602   1.469       .  S
C130        C145   1.474       .  S
C131        O132   1.274       .  A
C131        C659   1.435       .  S
C133        C146   1.513       .  S
C133        C358   1.537       .  S
C133        C363   1.535       .  S
C133        C361   1.529       .  S
C134        C357   1.531       .  S
C134        H141   1.087       .  S
C134        C135   1.362       .  D
C135        C136   1.542       .  S
C135        C173   1.443       .  S
C136        C140   1.542       .  S
C136        C138   1.538       .  S
C136        H142   1.111       .  S
C137        C357   1.534       .  S
C137        H367   1.087   1_554  S
C137        C138   1.366       .  D
C138        C161   1.477       .  S
C139        C357   1.535       .  S
C139        H368   1.086       .  S
C139        C140   1.369       .  D
C140        C166   1.486       .  S
H143        C361   1.087       .  S
H144        C363   1.086       .  S
C145        H147   1.086       .  S
C145        C146   1.338       .  D
C146        H148   1.088       .  S
C149        H151   1.086       .  S
C149        C150   1.343       .  D
C150        H152   1.088       .  S
C153        H155   1.086       .  S
C153        C154   1.343       .  D
C154        C576   1.473   1_545  S
C154        H156   1.088       .  S
C157        H159   1.087       .  S
C157        C158   1.340       .  D
C158        H160   1.087       .  S
C161        H163   1.086       .  S
C161        C162   1.343       .  D
C162        H164   1.088       .  S
C165        C524   1.478       .  S
C165        H615   1.088       .  S
C165        C166   1.346       .  D
C166        H168   1.086       .  S
H167        C613   1.087       .  S
C169        C170   1.204       .  T
C171        C172   1.207       .  T
C173        C174   1.208       .  T
C175        C176   1.205       .  T
C177        C178   1.209       .  T
C178        C506   1.439   1_445  S
C179        C180   1.210       .  T
C181        H183   1.087       .  S
C181        C182   1.341       .  D
C182        H184   1.087       .  S
C185        H187   1.085       .  S
C185        C186   1.341       .  D
C186        C504   1.467   1_545  S
C186        H188   1.089       .  S
C189        H191   1.088       .  S
C189        C190   1.343       .  D
C190        H192   1.086       .  S
C193        C194   1.206       .  T
C194        C471   1.434       .  S
C195        C196   1.209       .  T
C197        H199   1.087       .  S
C197        C422   1.345   1_554  D
C198        H200   1.088       .  S
C198        C421   1.338       .  D
C201        C469   1.479       .  S
C201        H203   1.088       .  S
C201        C202   1.344       .  D
C202        H204   1.086       .  S
C205        H207   1.087       .  S
C205        C206   1.344       .  D
C206        H208   1.086       .  S
C209        C210   1.208       .  T
C211        C579   1.437       .  S
C211        C212   1.208       .  T
C213        C214   1.208       .  T
C215        C216   1.209       .  T
C217        C218   1.206       .  T
C219        C220   1.210       .  T
C221        C222   1.208       .  T
C222        C538   1.436       .  S
C223        C278   1.433   1_554  S
C223        C224   1.206       .  T
C225        C441   1.468       .  S
C225        C444   1.468   1_655  S
C225        C445   1.464   1_655  S
C225        C448   1.464       .  S
C226        C434   1.469       .  S
C226        C436   1.470       .  S
C226        C438   1.473       .  S
C226        C439   1.465       .  S
O227        C243   1.272       .  A
O227       Zn233   2.022       .  S
C228        O244   1.271       .  A
C228        O241   1.277       .  A
C228        C429   1.470       .  S
O229        C242   1.273       .  A
O229       Cd236   2.070       .  S
O230        C248   1.279       .  A
O230       Cd239   2.092       .  S
O231        C245   1.271       .  A
O231       Cd235   2.047       .  S
O232        C243   1.270       .  A
O232       Cd235   2.061       .  S
Zn233       O244   1.993       .  S
Zn233       O246   2.022       .  S
Zn233       O238   1.935       .  S
O234        C245   1.278       .  A
O234       Cd239   2.099       .  S
Cd235       O237   2.058       .  S
Cd235       O238   1.986       .  S
Cd236       O240   2.084       .  S
Cd236       O249   2.056       .  S
Cd236       O238   2.001       .  S
O237        C247   1.272       .  A
O238       Cd239   2.018       .  S
Cd239       O241   2.092       .  S
O240        C247   1.275       .  A
C242        O246   1.274       .  A
C242        C419   1.436       .  S
C243        C440   1.434       .  S
C245        C873   1.472   1_545  S
C247        C866   1.434   1_545  S
C248        O249   1.271       .  A
C248        C421   1.469       .  S
C250        C251   1.536       .  S
C250        C256   1.532       .  S
C250        C254   1.536       .  S
C250        C422   1.516       .  S
C251        H258   1.086       .  S
C251        C252   1.370       .  D
C252        C253   1.542       .  S
C252        C409   1.488       .  S
C253        C257   1.541       .  S
C253        C255   1.540       .  S
C253        H259   1.111       .  S
C254        H260   1.086       .  S
C254        C255   1.370       .  D
C255        C414   1.485       .  S
C256        H261   1.087       .  S
C256        C257   1.361       .  D
C257        C433   1.444       .  S
O262        C278   1.271       .  A
O262       Zn268   2.017       .  S
C263        O279   1.273       .  A
C263        O276   1.278       .  A
C263        C413   1.476       .  S
O264        C277   1.274   1_455  A
O264       Cd271   2.072   1_455  S
O265        C283   1.279       .  A
O265       Cd274   2.085       .  S
O266        C280   1.272       .  A
O266       Cd270   2.041       .  S
O267        C278   1.271       .  A
O267       Cd270   2.064       .  S
Zn268       O279   2.005       .  S
Zn268       O281   2.006       .  S
Zn268       O273   1.935       .  S
O269        C280   1.277       .  A
O269       Cd274   2.094       .  S
Cd270       O272   2.053       .  S
Cd270       O273   1.985       .  S
Cd271       O275   2.084   1_655  S
Cd271       O284   2.063       .  S
Cd271       O273   2.002       .  S
O272        C282   1.270       .  A
O273       Cd274   2.015       .  S
Cd274       O276   2.099       .  S
O275        C282   1.274   1_455  A
C277        O281   1.272       .  A
C277        C403   1.430   1_655  S
C280        C858   1.468       .  S
C282        C850   1.434   1_655  S
C283        O284   1.273       .  A
C283        C405   1.477       .  S
C285        C286   1.531       .  S
C285        C291   1.543       .  S
C285        C289   1.531       .  S
C285        C406   1.516       .  S
C286        H293   1.087       .  S
C286        C287   1.366       .  D
C287        C288   1.537       .  S
C287        C426   1.478       .  S
C288        C292   1.537       .  S
C288        C290   1.536       .  S
C288        H294   1.111       .  S
C289        H295   1.087       .  S
C289        C290   1.367       .  D
C290        C430   1.480       .  S
C291        H296   1.083       .  S
C291        C292   1.365       .  D
C292        C442   1.443       .  S
C297        C398   1.475       .  S
C297        C400   1.465       .  S
C297        C417   1.472       .  S
C297        C420   1.467       .  S
C298        C394   1.460       .  S
C298        C395   1.463       .  S
C298        C401   1.462       .  S
C298        C404   1.462       .  S
O299       Zn305   2.017       .  S
C300        O316   1.275       .  A
C300        O313   1.274       .  A
C300        C837   1.478   1_545  S
O301        C314   1.272       .  A
O301       Cd308   2.063       .  S
O302        C320   1.277       .  A
O302       Cd311   2.064       .  S
O303        C317   1.277       .  A
O303       Cd307   2.081       .  S
O304       Cd307   2.078       .  S
Zn305       O316   2.030       .  S
Zn305       O318   2.020       .  S
Zn305       O310   1.932       .  S
O306        C317   1.271       .  A
O306       Cd311   2.056       .  S
Cd307       O309   2.074       .  S
Cd307       O310   1.997       .  S
Cd308       O312   2.076       .  S
Cd308       O321   2.064       .  S
Cd308       O310   1.998       .  S
O309        C319   1.274       .  A
O310       Cd311   1.994       .  S
Cd311       O313   2.073       .  S
O312        C319   1.274       .  A
C314        O318   1.274       .  A
C314        C894   1.431   1_545  S
C315        C396   1.432       .  S
C317        C386   1.463       .  S
C319        C443   1.437       .  S
C320        O321   1.273       .  A
C320        C382   1.473       .  S
C322        C323   1.532       .  S
C322        C328   1.542       .  S
C322        C326   1.530       .  S
C322        C381   1.509       .  S
C323        H330   1.087       .  S
C323        C324   1.366       .  D
C324        C325   1.535       .  S
C324        C373   1.476       .  S
C325        C329   1.533       .  S
C325        C327   1.533       .  S
C325        H331   1.112       .  S
C326        H332   1.087       .  S
C326        C327   1.365       .  D
C327        C377   1.472       .  S
C328        H333   1.083       .  S
C328        C329   1.364       .  D
C329        C393   1.435       .  S
O334        C350   1.272       .  A
O334       Zn340   2.005       .  S
C335        O351   1.273       .  A
C335        O348   1.270       .  A
C335        C399   1.434       .  S
O336        C349   1.276       .  A
O336       Cd343   2.092       .  S
O337        C355   1.273       .  A
O337       Cd346   2.062       .  S
O338        C352   1.274       .  A
O338       Cd342   2.076       .  S
O339        C350   1.274       .  A
O339       Cd342   2.073       .  S
Zn340       O351   2.026       .  S
Zn340       O353   2.023       .  S
Zn340       O345   1.943       .  S
O341        C352   1.271       .  A
O341       Cd346   2.049       .  S
Cd342       O344   2.059       .  S
Cd342       O345   2.009       .  S
Cd343       O347   2.083       .  S
Cd343       O356   2.090       .  S
Cd343       O345   2.010       .  S
O344        C354   1.273       .  A
O345       Cd346   1.993       .  S
Cd346       O348   2.060       .  S
O347        C354   1.277       .  A
C349        O353   1.274       .  A
C349        C437   1.442       .  S
C350        C374   1.469       .  S
C352        C826   1.466       .  S
C354        C369   1.474       .  S
C355        O356   1.276       .  A
C355        C883   1.437       .  S
C357        C370   1.510   1_554  S
C358        H365   1.086       .  S
C358        C359   1.367       .  D
C359        C360   1.544       .  S
C359        C397   1.449       .  S
C360        C364   1.533       .  S
C360        C362   1.539       .  S
C360        H366   1.111       .  S
C361        C362   1.365       .  D
C362        C385   1.479       .  S
C363        C364   1.369       .  D
C364        C390   1.480       .  S
C369        H371   1.087       .  S
C369        C370   1.343       .  D
C370        H372   1.087       .  S
C373        H375   1.086       .  S
C373        C374   1.342       .  D
C374        H376   1.088       .  S
C377        H379   1.086       .  S
C377        C378   1.340       .  D
C378        C800   1.465   1_545  S
C378        H380   1.088       .  S
C381        H383   1.087       .  S
C381        C382   1.342       .  D
C382        H384   1.082       .  S
C385        H387   1.086       .  S
C385        C386   1.339       .  D
C386        H388   1.087       .  S
C389        C748   1.471       .  S
C389        H839   1.088       .  S
C389        C390   1.341       .  D
C390        H392   1.086       .  S
H391        C837   1.087       .  S
C393        C394   1.203       .  T
C395        C396   1.205       .  T
C397        C398   1.211       .  T
C399        C400   1.206       .  T
C401        C402   1.204       .  T
C402        C730   1.430   1_445  S
C403        C404   1.204       .  T
C405        H407   1.082       .  S
C405        C406   1.343       .  D
C406        H408   1.087       .  S
C409        H411   1.086       .  S
C409        C410   1.345       .  D
C410        C728   1.479   1_545  S
C410        H412   1.088       .  S
C413        H415   1.087       .  S
C413        C414   1.344       .  D
C414        H416   1.086       .  S
C417        C418   1.210       .  T
C418        C695   1.440       .  S
C419        C420   1.207       .  T
C421        H423   1.086       .  S
C422        H424   1.087   1_556  S
C425        C693   1.470       .  S
C425        H427   1.088       .  S
C425        C426   1.343       .  D
C426        H428   1.086       .  S
C429        H431   1.088       .  S
C429        C430   1.342       .  D
C430        H432   1.086       .  S
C433        C434   1.208       .  T
C435        C803   1.437   1_545  S
C435        C436   1.208       .  T
C437        C438   1.211       .  T
C439        C440   1.206       .  T
C441        C442   1.207       .  T
C443        C444   1.208       .  T
C445        C446   1.205       .  T
C446        C762   1.432       .  S
C447        C448   1.205       .  T
C449        C665   1.470       .  S
C449        C668   1.470   1_655  S
C449        C669   1.475   1_655  S
C449        C672   1.472       .  S
C450        C658   1.466       .  S
C450        C660   1.467       .  S
C450        C662   1.474       .  S
C450        C663   1.463       .  S
O451        C467   1.270       .  A
O451       Zn457   2.008       .  S
C452        O468   1.270       .  A
C452        O465   1.278       .  A
C452        C653   1.471       .  S
O453        C466   1.273       .  A
O453       Cd460   2.073       .  S
O454        C472   1.281       .  A
O454       Cd463   2.100       .  S
O455        C469   1.273       .  A
O455       Cd459   2.059       .  S
O456        C467   1.272       .  A
O456       Cd459   2.066       .  S
Zn457       O468   1.986       .  S
Zn457       O470   2.006       .  S
Zn457       O462   1.930       .  S
O458        C469   1.280       .  A
O458       Cd463   2.110       .  S
Cd459       O461   2.061       .  S
Cd459       O462   1.985       .  S
Cd460       O464   2.083       .  S
Cd460       O473   2.056       .  S
Cd460       O462   2.001       .  S
O461        C471   1.273       .  A
O462       Cd463   2.016       .  S
Cd463       O465   2.099       .  S
O464        C471   1.275       .  A
C466        O470   1.271       .  A
C466        C643   1.432       .  S
C467        C664   1.431       .  S
C472        O473   1.272       .  A
C472        C645   1.471       .  S
C474        C475   1.534       .  S
C474        C480   1.530       .  S
C474        C478   1.539       .  S
C474        C646   1.512       .  S
C475        H482   1.086       .  S
C475        C476   1.366       .  D
C476        C477   1.539       .  S
C476        C633   1.479       .  S
C477        C481   1.540       .  S
C477        C479   1.540       .  S
C477        H483   1.111       .  S
C478        H484   1.086       .  S
C478        C479   1.372       .  D
C479        C638   1.486       .  S
C480        H485   1.087       .  S
C480        C481   1.359       .  D
C481        C657   1.440       .  S
O486        C502   1.272       .  A
O486       Zn492   2.019       .  S
C487        O503   1.273       .  A
C487        O500   1.277       .  A
C487        C637   1.479       .  S
O488        C501   1.275   1_455  A
O488       Cd495   2.079   1_455  S
O489        C507   1.280       .  A
O489       Cd498   2.087       .  S
O490        C504   1.270       .  A
O490       Cd494   2.035       .  S
O491        C502   1.270       .  A
O491       Cd494   2.057       .  S
Zn492       O503   2.012       .  S
Zn492       O505   2.021       .  S
Zn492       O497   1.938       .  S
O493        C504   1.277       .  A
O493       Cd498   2.093       .  S
Cd494       O496   2.059   1_565  S
Cd494       O497   1.986       .  S
Cd495       O499   2.095   1_655  S
Cd495       O508   2.062       .  S
Cd495       O497   2.005       .  S
O496        C506   1.271   1_545  A
O497       Cd498   2.016       .  S
Cd498       O500   2.098       .  S
O499        C506   1.276   1_455  A
C501        O505   1.274       .  A
C501        C627   1.436   1_655  S
C502        C895   1.431       .  S
C507        O508   1.273       .  A
C507        C629   1.478       .  S
C509        C510   1.529       .  S
C509        C515   1.544       .  S
C509        C513   1.532       .  S
C509        C630   1.515       .  S
C510        H517   1.087       .  S
C510        C511   1.365       .  D
C511        C512   1.537       .  S
C511        C650   1.479       .  S
C512        C516   1.538       .  S
C512        C514   1.537       .  S
C512        H518   1.111       .  S
C513        H519   1.087       .  S
C513        C514   1.367       .  D
C514        C654   1.480       .  S
C515        H520   1.084       .  S
C515        C516   1.367       .  D
C516        C666   1.445       .  S
C521        C622   1.459       .  S
C521        C624   1.458       .  S
C521        C641   1.467       .  S
C521        C644   1.464       .  S
C522        C618   1.472       .  S
C522        C619   1.468       .  S
C522        C625   1.472       .  S
C522        C628   1.468       .  S
O523        C763   1.273       .  A
O523       Zn529   2.026   1_556  S
C524        O540   1.274       .  A
C524        O537   1.277       .  A
O525        C538   1.275       .  A
O525       Cd532   2.078       .  S
O526        C544   1.281       .  A
O526       Cd535   2.092       .  S
O527        C541   1.272       .  A
O527       Cd531   2.051       .  S
O528        C763   1.271       .  A
O528       Cd531   2.065   1_556  S
Zn529       O540   2.014       .  S
Zn529       O542   2.018       .  S
Zn529       O534   1.937       .  S
O530        C541   1.279       .  A
O530       Cd535   2.099       .  S
Cd531       O533   2.070       .  S
Cd531       O534   1.988       .  S
Cd532       O536   2.084       .  S
Cd532       O545   2.060       .  S
Cd532       O534   2.002       .  S
O533        C543   1.273       .  A
O534       Cd535   2.016       .  S
Cd535       O537   2.094       .  S
O536        C543   1.275       .  A
C538        O542   1.273       .  A
C539        O747   1.271       .  A
C539        O752   1.272       .  A
C539        C620   1.436       .  S
C541        C610   1.473       .  S
C543        C667   1.438       .  S
C544        O545   1.273       .  A
C544        C606   1.478       .  S
C546        C547   1.528       .  S
C546        C552   1.545       .  S
C546        C550   1.531       .  S
C546        C605   1.515       .  S
C547        H554   1.087       .  S
C547        C548   1.364       .  D
C548        C549   1.537       .  S
C548        C597   1.478       .  S
C549        C553   1.538       .  S
C549        C551   1.537       .  S
C549        H555   1.111       .  S
C550        H556   1.087       .  S
C550        C551   1.368       .  D
C551        C601   1.481       .  S
C552        H557   1.084       .  S
C552        C553   1.368       .  D
C553        C617   1.447       .  S
O558        C574   1.272       .  A
O558       Zn564   2.003       .  S
C559        O575   1.270       .  A
C559        O572   1.269       .  A
C559        C623   1.427       .  S
O560        C573   1.276       .  A
O560       Cd567   2.098       .  S
O561        C579   1.272       .  A
O561       Cd570   2.057   1_545  S
O562        C576   1.276       .  A
O562       Cd566   2.087       .  S
O563        C574   1.274       .  A
O563       Cd566   2.074       .  S
Zn564       O575   2.008       .  S
Zn564       O577   2.010       .  S
Zn564       O569   1.941       .  S
O565        C576   1.272   1_545  A
O565       Cd570   2.060   1_545  S
Cd566       O568   2.056       .  S
Cd566       O569   2.009       .  S
Cd567       O571   2.089       .  S
Cd567       O580   2.094       .  S
Cd567       O569   2.012       .  S
O568        C578   1.273       .  A
O569       Cd570   1.994       .  S
Cd570       O572   2.054       .  S
O571        C578   1.279       .  A
C573        O577   1.271       .  A
C573        C661   1.442       .  S
C574        C598   1.468       .  S
C578        C593   1.474       .  S
C579        O580   1.277   1_545  A
C581        C806   1.529       .  S
C581        C811   1.536       .  S
C581        C809   1.537       .  S
C581        C594   1.510       .  S
C582        C805   1.526       .  S
C582        H589   1.087       .  S
C582        C583   1.359       .  D
C583        C584   1.539       .  S
C583        C621   1.434       .  S
C584        C588   1.538       .  S
C584        C586   1.539       .  S
C584        H590   1.111       .  S
C585        C805   1.535       .  S
C585        H815   1.086       .  S
C585        C586   1.370       .  D
C586        C609   1.483       .  S
C587        C805   1.534       .  S
C587        H816   1.086   1_554  S
C587        C588   1.366       .  D
C588        C614   1.478       .  S
H591        C809   1.086       .  S
H592        C811   1.086       .  S
C593        H595   1.087       .  S
C593        C594   1.341       .  D
C594        H596   1.087       .  S
C597        H599   1.086       .  S
C597        C598   1.343       .  D
C598        H600   1.088       .  S
C601        H603   1.086       .  S
C601        C602   1.341       .  D
C602        H604   1.088       .  S
C605        H607   1.087       .  S
C605        C606   1.341       .  D
C606        H608   1.083       .  S
C609        H611   1.086       .  S
C609        C610   1.343       .  D
C610        H612   1.088       .  S
C613        C614   1.343       .  D
C614        H616   1.086       .  S
C617        C618   1.210       .  T
C619        C620   1.207       .  T
C621        C622   1.202       .  T
C623        C624   1.202       .  T
C625        C626   1.210       .  T
C627        C628   1.208       .  T
C629        H631   1.082       .  S
C629        C630   1.342       .  D
C630        H632   1.087       .  S
C633        H635   1.086       .  S
C633        C634   1.344       .  D
C634        H636   1.088       .  S
C637        H639   1.087       .  S
C637        C638   1.344       .  D
C638        H640   1.086       .  S
C641        C642   1.207       .  T
C643        C644   1.205       .  T
C645        H647   1.086       .  S
C645        C870   1.336       .  D
C646        H648   1.087       .  S
C646        C869   1.341       .  D
C649        H651   1.088       .  S
C649        C650   1.343       .  D
C650        H652   1.086       .  S
C653        H655   1.088       .  S
C653        C654   1.341       .  D
C654        H656   1.085       .  S
C657        C658   1.206       .  T
C659        C660   1.207       .  T
C661        C662   1.211       .  T
C663        C664   1.205       .  T
C665        C666   1.209       .  T
C667        C668   1.208       .  T
C669        C670   1.211       .  T
C671        C726   1.440   1_554  S
C671        C672   1.210       .  T
C673        C889   1.471       .  S
C673        C892   1.464   1_655  S
C673        C893   1.463   1_655  S
C673        C896   1.462       .  S
C674        C882   1.475       .  S
C674        C884   1.469       .  S
C674        C886   1.472       .  S
C674        C887   1.469       .  S
O675        C691   1.272       .  A
O675       Zn681   2.026       .  S
C676        O692   1.272       .  A
C676        O689   1.274       .  A
C676        C877   1.468       .  S
O677        C690   1.275       .  A
O677       Cd684   2.086       .  S
O678        C696   1.272       .  A
O678       Cd687   2.055       .  S
O679        C693   1.273       .  A
O679       Cd683   2.060       .  S
O680        C691   1.272       .  A
O680       Cd683   2.072       .  S
Zn681       O692   2.004       .  S
Zn681       O694   2.015       .  S
Zn681       O686   1.944       .  S
O682        C693   1.275       .  A
O682       Cd687   2.076       .  S
Cd683       O685   2.067       .  S
Cd683       O686   1.997       .  S
Cd684       O688   2.096       .  S
Cd684       O697   2.092       .  S
Cd684       O686   2.014       .  S
O685        C695   1.274       .  A
O686       Cd687   2.009       .  S
Cd687       O689   2.071       .  S
O688        C695   1.277       .  A
C690        O694   1.273       .  A
C690        C867   1.438       .  S
C691        C888   1.438       .  S
C696        O697   1.279       .  A
C696        C869   1.476       .  S
C698        C699   1.526       .  S
C698        C704   1.537       .  S
C698        C702   1.532       .  S
C698        C870   1.511   1_556  S
C699        H706   1.087       .  S
C699        C700   1.364       .  D
C700        C701   1.540       .  S
C700        C857   1.481       .  S
C701        C705   1.545       .  S
C701        C703   1.540       .  S
C701        H707   1.111       .  S
C702        H708   1.086       .  S
C702        C703   1.369       .  D
C703        C862   1.485       .  S
C704        H709   1.086       .  S
C704        C705   1.369       .  D
C705        C881   1.449       .  S
O710        C726   1.274       .  A
O710       Zn716   2.038       .  S
C711        O727   1.274       .  A
C711        O724   1.279       .  A
C711        C861   1.473       .  S
O712        C725   1.273       .  A
O712       Cd719   2.073       .  S
O713        C731   1.281       .  A
O713       Cd722   2.103       .  S
O714        C728   1.273       .  A
O714       Cd718   2.059       .  S
O715        C726   1.271       .  A
O715       Cd718   2.066       .  S
Zn716       O727   2.003       .  S
Zn716       O729   2.027       .  S
Zn716       O721   1.941       .  S
O717        C728   1.279       .  A
O717       Cd722   2.110       .  S
Cd718       O720   2.060   1_565  S
Cd718       O721   1.991       .  S
Cd719       O723   2.069       .  S
Cd719       O732   2.059       .  S
Cd719       O721   2.002       .  S
O720        C730   1.273   1_545  A
O721       Cd722   2.022       .  S
Cd722       O724   2.099       .  S
O723        C730   1.273       .  A
C725        O729   1.273       .  A
C725        C851   1.438   1_655  S
C731        O732   1.273       .  A
C731        C853   1.481       .  S
C733        C734   1.533       .  S
C733        C739   1.547       .  S
C733        C737   1.530       .  S
C733        C854   1.520       .  S
C734        H741   1.087       .  S
C734        C735   1.369       .  D
C735        C736   1.537       .  S
C735        C874   1.482       .  S
C736        C740   1.536       .  S
C736        C738   1.535       .  S
C736        H742   1.111       .  S
C737        H743   1.087       .  S
C737        C738   1.364       .  D
C738        C878   1.476       .  S
C739        H744   1.083       .  S
C739        C740   1.368       .  D
C740        C890   1.446       .  S
C745        C846   1.466       .  S
C745        C848   1.460       .  S
C745        C865   1.466       .  S
C745        C868   1.469       .  S
C746        C842   1.468       .  S
C746        C843   1.468       .  S
C746        C849   1.466       .  S
C746        C852   1.470       .  S
O747       Zn753   2.018       .  S
C748        O764   1.271       .  A
C748        O761   1.277       .  A
O749        C762   1.272       .  A
O749       Cd756   2.065       .  S
O750        C768   1.281       .  A
O750       Cd759   2.095       .  S
O751        C765   1.273       .  A
O751       Cd755   2.057       .  S
O752       Cd755   2.072       .  S
Zn753       O764   1.992       .  S
Zn753       O766   2.015       .  S
Zn753       O758   1.934       .  S
O754        C765   1.277       .  A
O754       Cd759   2.089       .  S
Cd755       O757   2.074       .  S
Cd755       O758   1.990       .  S
Cd756       O760   2.063       .  S
Cd756       O769   2.053       .  S
Cd756       O758   1.998       .  S
O757        C767   1.275       .  A
O758       Cd759   2.015       .  S
Cd759       O761   2.092       .  S
O760        C767   1.272       .  A
C762        O766   1.273       .  A
C763        C844   1.436       .  S
C765        C834   1.472       .  S
C767        C891   1.433       .  S
C768        O769   1.271       .  A
C768        C830   1.477       .  S
C770        C771   1.530       .  S
C770        C776   1.546       .  S
C770        C774   1.529       .  S
C770        C829   1.514       .  S
C771        H778   1.087       .  S
C771        C772   1.365       .  D
C772        C773   1.535       .  S
C772        C821   1.474       .  S
C773        C777   1.535       .  S
C773        C775   1.535       .  S
C773        H779   1.112       .  S
C774        H780   1.087       .  S
C774        C775   1.365       .  D
C775        C825   1.476       .  S
C776        H781   1.084       .  S
C776        C777   1.368       .  D
C777        C841   1.444       .  S
O782        C798   1.272       .  A
O782       Zn788   2.006       .  S
C783        O799   1.271       .  A
C783        O796   1.270       .  A
C783        C847   1.429       .  S
O784        C797   1.276       .  A
O784       Cd791   2.091       .  S
O785        C803   1.271   1_545  A
O785       Cd794   2.051   1_545  S
O786        C800   1.274       .  A
O786       Cd790   2.072       .  S
O787        C798   1.273       .  A
O787       Cd790   2.064       .  S
Zn788       O799   2.015       .  S
Zn788       O801   2.017       .  S
Zn788       O793   1.939       .  S
O789        C800   1.270       .  A
O789       Cd794   2.047       .  S
Cd790       O792   2.046       .  S
Cd790       O793   2.004       .  S
Cd791       O795   2.080       .  S
Cd791       O804   2.099       .  S
Cd791       O793   2.009       .  S
O792        C802   1.271       .  A
O793       Cd794   1.989       .  S
Cd794       O796   2.054       .  S
O795        C802   1.278       .  A
C797        O801   1.274       .  A
C797        C885   1.440       .  S
C798        C822   1.467       .  S
C802        C817   1.468       .  S
C803        O804   1.277       .  A
C805        C818   1.505   1_554  S
C806        H813   1.087       .  S
C806        C807   1.359       .  D
C807        C808   1.540       .  S
C807        C845   1.441       .  S
C808        C812   1.540       .  S
C808        C810   1.536       .  S
C808        H814   1.111       .  S
C809        C810   1.370       .  D
C810        C833   1.479       .  S
C811        C812   1.369       .  D
C812        C838   1.483       .  S
C817        H819   1.088       .  S
C817        C818   1.339       .  D
C818        H820   1.087       .  S
C821        H823   1.086       .  S
C821        C822   1.342       .  D
C822        H824   1.088       .  S
C825        H827   1.086       .  S
C825        C826   1.341       .  D
C826        H828   1.088       .  S
C829        H831   1.087       .  S
C829        C830   1.340       .  D
C830        H832   1.082       .  S
C833        H835   1.086       .  S
C833        C834   1.342       .  D
C834        H836   1.088       .  S
C837        C838   1.347       .  D
C838        H840   1.086       .  S
C841        C842   1.208       .  T
C843        C844   1.207       .  T
C845        C846   1.207       .  T
C847        C848   1.203       .  T
C849        C850   1.206       .  T
C851        C852   1.208       .  T
C853        H855   1.082       .  S
C853        C854   1.342       .  D
C854        H856   1.087       .  S
C857        H859   1.085       .  S
C857        C858   1.344       .  D
C858        H860   1.088       .  S
C861        H863   1.087       .  S
C861        C862   1.344       .  D
C862        H864   1.086       .  S
C865        C866   1.206       .  T
C867        C868   1.208       .  T
C869        H871   1.087       .  S
C870        H872   1.088       .  S
C873        H875   1.088       .  S
C873        C874   1.342       .  D
C874        H876   1.086       .  S
C877        H879   1.088       .  S
C877        C878   1.342       .  D
C878        H880   1.086       .  S
C881        C882   1.211       .  T
C883        C884   1.208       .  T
C885        C886   1.210       .  T
C887        C888   1.208       .  T
C889        C890   1.209       .  T
C891        C892   1.205       .  T
C893        C894   1.205       .  T
C895        C896   1.204       .  T
