geometry optimzed in LAMMPS
_audit_creation_date              2020-11-30 
_audit_creation_method            'lammps2cif' 
_symmetry_space_group_name_H-M    'P1' 
_symmetry_Int_Tables_number       1 
_symmetry_cell_setting            triclinic 
loop_ 
_symmetry_equiv_pos_as_xyz 
  x,y,z 
_cell_length_a                    42.56679135564634 
_cell_length_b                    42.44329811345969 
_cell_length_c                    31.766073280911847 
_cell_angle_alpha                 89.47990024373892 
_cell_angle_beta                  89.94049281956954 
_cell_angle_gamma                 120.9251800846694 
loop_ 
_atom_site_label 
_atom_site_type_symbol 
_atom_site_fract_x 
_atom_site_fract_y 
_atom_site_fract_z 
_atom_site_charge 
O1          O  0.41212552  0.38445489  0.32311334    -0.55440
C2          C  0.36674849  0.31085806  0.24242207     0.77190
O3          O  0.32029541  0.36149198  0.23942203    -0.56600
C4          C  0.42731304  0.41853921  0.32997885     0.77160
C5          C  0.42154183  0.42437918  0.17739439     0.79560
Cd6        Cd  0.38559735  0.38572877  0.25440435     1.37470
O7          O  0.39725145  0.33780291  0.23054506    -0.55430
O8          O  0.43719903  0.41479753  0.20397947    -0.54240
C9          C  0.31613392  0.38077181  0.26643844     0.79520
O10         O  0.38981153  0.41741417  0.18740357    -0.56620
O11         O  0.34624621  0.31862848  0.26301480    -0.55070
O12         O  0.42419269  0.43745398  0.30113110    -0.55060
O13         O  0.34472210  0.40398148  0.28561291    -0.54230
C14         C  0.17907936  0.34209171  0.34181934     0.02940
C15         C  0.14624038  0.33567274  0.32771324     0.02940
C16         C  0.31570080  0.17300200  0.16169769     0.02940
C17         C  0.30945700  0.14020962  0.17648748     0.02940
O18         O  0.93195070  0.23730977  0.48622716    -0.55440
C19         C  0.00852029  0.29011882  0.40687497     0.77190
O20         O  0.88887295  0.24995608  0.35766401    -0.56600
C21         C  0.89771538  0.22129296  0.49256669     0.77160
C22         C  0.93662955  0.33402014  0.43296601     0.79560
Cd23       Cd  0.93183564  0.26490879  0.41741980     1.37460
O24         O  0.98594850  0.25695106  0.41687985    -0.55430
O25         O  0.91881601  0.30633227  0.45692248    -0.54240
C26         C  0.89525665  0.22686462  0.34096202     0.79520
O27         O  0.95035053  0.32914772  0.40013292    -0.56620
O28         O  0.99558857  0.31097648  0.40435425    -0.55070
O29         O  0.87928944  0.22449784  0.46340691    -0.55060
O30         O  0.91760421  0.22087241  0.36030187    -0.54230
O31         O  0.08637200  0.72200749  0.65049991    -0.55440
C32         C  0.02639076  0.64073903  0.57385966     0.77190
O33         O  0.99033630  0.70455001  0.56677604    -0.56600
C34         C  0.09347187  0.75403953  0.65957425     0.77160
C35         C  0.09155850  0.75669060  0.50864231     0.79560
Cd36       Cd  0.05263518  0.71793033  0.58485391     1.37460
O37         O  0.05882196  0.66241616  0.58608651    -0.55430
O38         O  0.10198841  0.73903791  0.53098190    -0.54240
C39         C  0.98391506  0.71323060  0.60240191     0.79520
O40         O  0.06435613  0.75778281  0.52265680    -0.56620
O41         O  0.00658264  0.65464824  0.56939930    -0.55070
O42         O  0.08347288  0.76956774  0.63311242    -0.55060
O43         O  0.00959071  0.72517559  0.62891762    -0.54230
O44         O  0.59289977  0.56014263  0.81657845    -0.55440
C45         C  0.67473153  0.62304166  0.73790887     0.77190
O46         O  0.55369104  0.58032148  0.69386632    -0.56600
C47         C  0.56140024  0.55401830  0.82670860     0.77160
C48         C  0.60382417  0.66493926  0.77152067     0.79560
Cd49       Cd  0.59796181  0.59619535  0.75218548     1.37460
O50         O  0.65436142  0.59194713  0.75524062    -0.55430
O51         O  0.59620277  0.64034284  0.79913433    -0.54240
C52         C  0.55831921  0.55558359  0.67859484     0.79520
O53         O  0.60764113  0.65745829  0.73405786    -0.56620
O54         O  0.65967262  0.64126218  0.72916325    -0.55070
O55         O  0.54655721  0.56545780  0.80120464    -0.55060
O56         O  0.58011194  0.54901748  0.69831948    -0.54230
C57         C  0.84645227  0.67765685  0.67464835     0.02940
C58         C  0.81383460  0.67134456  0.65971282     0.02940
O59         O  0.72544598  0.99576049  0.91923812    -0.55440
C60         C  0.76023903  0.08669107  0.99428846     0.77190
O61         O  0.73360561  0.09264332  0.85820832    -0.56600
C62         C  0.69579216  0.97591832  0.89965365     0.77160
C63         C  0.64697466  0.03766606  0.93723487     0.79560
Cd64       Cd  0.71881398  0.05061948  0.91933569     1.37460
O65         O  0.75131500  0.05422413  0.98507617    -0.55430
O66         O  0.66019845  0.02034190  0.95509509    -0.54240
C67         C  0.75805394  0.08743266  0.84305050     0.79520
O68         O  0.66772516  0.06268560  0.91126807    -0.56620
O69         O  0.75102716  0.10297403  0.96799160    -0.55070
O70         O  0.67785333  0.99097907  0.88932096    -0.55060
O71         O  0.76516801  0.06651280  0.86420456    -0.54230
C72         C  0.64165162  0.80319946  0.84294727     0.02940
C73         C  0.64753483  0.83550951  0.82665278     0.02940
C74         C  0.98110930  0.50341796  0.49470690     0.02940
C75         C  0.97441022  0.47022534  0.50889441     0.02940
O76         O  0.31703737  0.92558856  0.07999747    -0.55440
C77         C  0.22727359  0.89186391  0.15772687     0.77190
O78         O  0.24624070  0.98132948  0.08324303    -0.56600
C79         C  0.33843636  0.95666871  0.06317674     0.77160
C80         C  0.22515829  0.89633867  0.00574899     0.79560
Cd81       Cd  0.26335361  0.93345798  0.08192669     1.37460
O82         O  0.25653344  0.89449247  0.14432851    -0.55430
O83         O  0.23652810  0.88186207  0.03183229    -0.54240
C84         C  0.27487206  0.00409802  0.10285418     0.79520
O85         O  0.23080217  0.92765507  0.01541351    -0.56620
O86         O  0.21456108  0.90753321  0.13548534    -0.55070
O87         O  0.32499808  0.97648730  0.05491380    -0.55060
O88         O  0.29662335  0.99343619  0.11324220    -0.54230
C89         C  0.51256808  0.01079498  0.00916062     0.02940
C90         C  0.48051935  0.00567955  0.99357561     0.02940
O91         O  0.25727029  0.35977597  0.64949589    -0.55440
C92         C  0.33526689  0.38700381  0.57287831     0.77190
O93         O  0.28501435  0.28801765  0.57016660    -0.56600
C94         C  0.22504179  0.33471590  0.65937515     0.77160
C95         C  0.22191729  0.32555804  0.50896023     0.79560
Cd96       Cd  0.26048034  0.32849727  0.58508770     1.37460
O97         O  0.32725126  0.36145089  0.59931709    -0.55430
O98         O  0.22907210  0.34915114  0.53706249    -0.54240
C99         C  0.26630397  0.26429578  0.59822175     0.79520
O100        O  0.23089382  0.30201651  0.51720446    -0.56620
O101        O  0.30850532  0.38679230  0.55536623    -0.55070
O102        O  0.20930559  0.30828858  0.63409530    -0.55060
O103        O  0.24347013  0.26927068  0.61808725    -0.54230
C104        C  0.30510029  0.16675259  0.67439454     0.02940
C105        C  0.31337652  0.14166824  0.66057296     0.02940
O106        O  0.66859736  0.60264351  0.41713909    -0.55440
C107        C  0.75633707  0.66416610  0.34264087     0.77190
O108        O  0.72701789  0.72976245  0.41803694    -0.56600
C109        C  0.64822705  0.60836487  0.44106913     0.77160
C110        C  0.76110254  0.67240689  0.49304631     0.79560
Cd111      Cd  0.72003000  0.66762500  0.41819404     1.37460
O112        O  0.72532592  0.63814670  0.35445774    -0.55430
O113        O  0.74336788  0.64333887  0.47200672    -0.54240
C114        C  0.69797368  0.71975407  0.39737624     0.79520
O115        O  0.76112246  0.70030819  0.47861720    -0.56620
O116        O  0.77126977  0.69170687  0.36651411    -0.55070
O117        O  0.66190648  0.64058825  0.45510989    -0.55060
O118        O  0.68058597  0.68667388  0.38588281    -0.54230
C119        C  0.65011155  0.81120249  0.32358073     0.02940
C120        C  0.64264929  0.83665908  0.33803861     0.02940
C121        C  0.47691857  0.47501144  0.49609778     0.02940
C122        C  0.50947538  0.50135722  0.51186325     0.02940
O123        O  0.32244240  0.95374655  0.73342349    -0.55440
C124        C  0.42453341  0.00171612  0.67708739     0.77190
O125        O  0.39534329  0.06411537  0.74770013    -0.56600
C126        C  0.31538534  0.93582025  0.76765598     0.77160
C127        C  0.42799888  0.00840214  0.82757702     0.79560
Cd128      Cd  0.38580236  0.00082223  0.75275462     1.37460
O129        O  0.39998515  0.97194232  0.69373315    -0.55430
O130        O  0.42081381  0.98414398  0.80027917    -0.54240
C131        C  0.36188915  0.05300192  0.74107230     0.79520
O132        O  0.41653291  0.03009289  0.81969623    -0.56620
O133        O  0.43148712  0.03060950  0.69601842    -0.55070
O134        O  0.34141404  0.94676572  0.79360649    -0.55060
O135        O  0.34036409  0.01866870  0.74264212    -0.54230
O136        O  0.64994237  0.06360427  0.24684370    -0.55440
C137        C  0.56266013  0.00559956  0.32895574     0.77190
O138        O  0.55437062  0.97375426  0.19349118    -0.56600
C139        C  0.67304105  0.05456095  0.23664488     0.77160
C140        C  0.60891189  0.93903794  0.26719111     0.79560
Cd141      Cd  0.59801009  0.99994442  0.25332168     1.37470
O142        O  0.59558154  0.02874061  0.31967996    -0.55430
O143        O  0.62950594  0.97058370  0.28221464    -0.54240
C144        C  0.56402024  0.00421155  0.17564466     0.79520
O145        O  0.58188147  0.93466017  0.24572285    -0.56620
O146        O  0.54578614  0.98018963  0.30275189    -0.55070
O147        O  0.66145434  0.02056132  0.23498107    -0.55060
O148        O  0.58902728  0.03225682  0.19379111    -0.54230
O149        O  0.00534114  0.27159691  0.08327965    -0.55440
C150        C  0.08940981  0.33064183  0.00866946     0.77190
O151        O  0.03108243  0.37698836  0.09987566    -0.56600
C152        C  0.98152105  0.27835878  0.09720341     0.77160
C153        C  0.09543075  0.33958354  0.16042016     0.79560
Cd154      Cd  0.05614866  0.33721626  0.08473125     1.37470
O155        O  0.05570725  0.30962592  0.01698476    -0.55430
O156        O  0.07413898  0.31034849  0.14120885    -0.54240
C157        C  0.04270837  0.39592986  0.06638517     0.79520
O158        O  0.10010589  0.36886854  0.14366906    -0.56620
O159        O  0.10808379  0.35397901  0.03651464    -0.55070
O160        O  0.99243844  0.31174564  0.10360842    -0.55060
O161        O  0.06322276  0.38987037  0.04325906    -0.54230
O162        O  0.98043849  0.72638909  0.91001402    -0.55440
C163        C  0.89316544  0.66657668  0.99459615     0.77190
O164        O  0.89156685  0.63400872  0.85295508    -0.56600
C165        C  0.00391954  0.71663202  0.90682949     0.77160
C166        C  0.93476198  0.59923986  0.93162725     0.79560
Cd167      Cd  0.92698708  0.66204456  0.91775219     1.37470
O168        O  0.92473906  0.69231408  0.98359126    -0.55430
O169        O  0.91042648  0.60221607  0.95107642    -0.54240
C170        C  0.88905593  0.66119690  0.84148064     0.79520
O171        O  0.95300082  0.62346418  0.90387435    -0.56620
O172        O  0.87748142  0.63981960  0.96974145    -0.55070
O173        O  0.99187196  0.68281261  0.91202747    -0.55060
O174        O  0.90289004  0.68817496  0.86605114    -0.54230
C175        C  0.98463835  0.47801597  0.98958030     0.02940
C176        C  0.97526133  0.50174848  0.00547894     0.02940
C177        C  0.17634023  0.83536692  0.84089452     0.02940
C178        C  0.14306040  0.80921607  0.82649995     0.02940
C179        C  0.84565827  0.17233739  0.17356246     0.02940
C180        C  0.81275664  0.14541303  0.15929253     0.02940
O181        O  0.34144474  0.25766558  0.84982846    -0.55440
C182        C  0.37708061  0.33395840  0.93523264     0.77190
O183        O  0.25245304  0.25490796  0.91958669    -0.56600
C184        C  0.31569319  0.22604372  0.84006618     0.77160
C185        C  0.30911476  0.22337461  0.99421109     0.79560
Cd186      Cd  0.31485268  0.26266965  0.91648137     1.37470
O187        O  0.38116155  0.30705996  0.92742568    -0.55430
O188        O  0.33497830  0.23326177  0.96804741    -0.54240
C189        C  0.26198551  0.28370660  0.89781170     0.79520
O190        O  0.28478656  0.23065632  0.98388408    -0.56620
O191        O  0.34470706  0.32767639  0.93427218    -0.55070
O192        O  0.28967722  0.21059441  0.86641828    -0.55060
O193        O  0.29473735  0.30101638  0.88471660    -0.54230
C194        C  0.17029690  0.33163059  0.82569649     0.02940
C195        C  0.14475526  0.33869254  0.84092326     0.02940
O196        O  0.62470297  0.72281483  0.14994937    -0.55440
C197        C  0.60175791  0.64252680  0.07191689     0.77190
O198        O  0.68504461  0.75988215  0.02274608    -0.56600
C199        C  0.64961931  0.75521107  0.15910407     0.77160
C200        C  0.71752277  0.71274468  0.10278517     0.79560
Cd201      Cd  0.65500618  0.71953013  0.08469558     1.37460
O202        O  0.59154310  0.66384880  0.08553312    -0.55430
O203        O  0.70526045  0.72626133  0.12884268    -0.54240
C204        C  0.65706436  0.75998995  0.00973394     0.79520
O205        O  0.70200120  0.70392661  0.06734106    -0.56620
O206        O  0.63576084  0.65675115  0.06651235    -0.55070
O207        O  0.67612592  0.77097889  0.13335532    -0.55060
O208        O  0.62861228  0.74263118  0.03228343    -0.54230
C209        C  0.47983597  0.47060763  0.00951352     0.02940
C210        C  0.50711094  0.50354892  0.99476315     0.02940
O211        O  0.95460471  0.38179707  0.82028286    -0.55510
C212        C  0.92637977  0.30651060  0.73848833     0.77190
O213        O  0.01186168  0.41644565  0.68551900    -0.56600
C214        C  0.97445107  0.41606463  0.82610798     0.77160
C215        C  0.04765228  0.37816019  0.76554255     0.79560
Cd216      Cd  0.98291623  0.38211674  0.75165000     1.37460
O217        O  0.92243063  0.33316461  0.72840374    -0.55430
O218        O  0.04006928  0.39805202  0.78767241    -0.54240
C219        C  0.98608601  0.42154910  0.67518985     0.79520
O220        O  0.02666857  0.36216824  0.73483226    -0.56620
O221        O  0.95530074  0.31469662  0.75824558    -0.55070
O222        O  0.99691797  0.43424078  0.79688783    -0.55060
O223        O  0.95968830  0.40955388  0.70097733    -0.54230
C224        C  0.83924435  0.16695635  0.65838648     0.02940
C225        C  0.81185574  0.13430478  0.67373752     0.02940
O226        O  0.67367815  0.91955543  0.51868990    -0.55440
C227        C  0.70453858  0.99741123  0.60249003     0.77190
O228        O  0.58134506  0.91273113  0.57523243    -0.56600
C229        C  0.64615819  0.89033668  0.50561842     0.77160
C230        C  0.64088546  0.88403718  0.65882236     0.79560
Cd231      Cd  0.64466034  0.92509926  0.58353710     1.37470
O232        O  0.70917575  0.97748886  0.57667254    -0.55430
O233        O  0.66809808  0.89815966  0.63406583    -0.54240
C234        C  0.59118425  0.94577642  0.56670575     0.79520
O235        O  0.61409315  0.88718522  0.64778883    -0.56620
O236        O  0.67319713  0.98323838  0.61950296    -0.55070
O237        O  0.61808291  0.87677913  0.52905295    -0.55060
O238        O  0.62518278  0.96859144  0.56627825    -0.54230
O239        O  0.25727155  0.99460195  0.42217615    -0.55440
C240        C  0.31301104  0.08783386  0.49421918     0.77190
O241        O  0.38213578  0.06546130  0.41434757    -0.56600
C242        C  0.26690319  0.97708977  0.39851825     0.77160
C243        C  0.31797494  0.09137314  0.34376771     0.79560
Cd244      Cd  0.31803345  0.05236079  0.41902657     1.37460
O245        O  0.28558283  0.05877848  0.48063373    -0.55430
O246        O  0.28953062  0.07230399  0.36594593    -0.54240
C247        C  0.37608626  0.03929639  0.43910730     0.79520
O248        O  0.34693409  0.09353199  0.35735827    -0.56620
O249        O  0.34184670  0.10082699  0.47213944    -0.55070
O250        O  0.29926129  0.99477544  0.38420888    -0.55060
O251        O  0.34430471  0.02112852  0.45500795    -0.54230
O252        O  0.01152503  0.58724563  0.18402864    -0.55440
C253        C  0.04431385  0.66668741  0.26644044     0.77190
O254        O  0.92319121  0.59072427  0.25795067    -0.56600
C255        C  0.98416061  0.55708664  0.17298931     0.77160
C256        C  0.97971695  0.55586062  0.32647144     0.79560
Cd257      Cd  0.98346663  0.59455757  0.24887141     1.37470
O258        O  0.04945990  0.64124255  0.25461196    -0.55430
O259        O  0.00906907  0.57603828  0.30629419    -0.54240
C260        C  0.93119788  0.61675540  0.23205787     0.79520
O261        O  0.95095375  0.55221178  0.31005973    -0.56620
O262        O  0.01140391  0.65862659  0.26985662    -0.55070
O263        O  0.95702753  0.54362616  0.19788123    -0.55060
O264        O  0.96209214  0.63081420  0.21405756    -0.54230
C265        C  0.81411374  0.67216021  0.17655687     0.02940
C266        C  0.83933439  0.66461900  0.16137871     0.02940
C267        C  0.14792403  0.80331853  0.34007473     0.02940
C268        C  0.17424523  0.83651587  0.32485051     0.02940
C269        C  0.47904965  0.00606948  0.50995247     0.02940
C270        C  0.50436985  0.99896451  0.49430516     0.02940
C271        C  0.92130864  0.66692146  0.20806497     0.25970
C272        C  0.90634589  0.63047327  0.22235834    -0.22140
C273        C  0.86801923  0.60714145  0.22362896     0.20880
C274        C  0.84534526  0.61909382  0.20693010     0.25910
C275        C  0.86082164  0.65454515  0.18929036    -0.22080
C276        C  0.89874632  0.67879608  0.19178663     0.20820
F277        F  0.91420111  0.71360427  0.17637199    -0.12040
F278        F  0.95805049  0.69083949  0.20845107    -0.14400
F279        F  0.80866744  0.59525946  0.20513816    -0.14400
F280        F  0.85269700  0.57202893  0.23797951    -0.12040
C281        C  0.10622593  0.70773846  0.29700833     0.25970
C282        C  0.07473473  0.70356394  0.27743438    -0.22140
C283        C  0.07095289  0.73443616  0.27234526     0.20880
C284        C  0.09689802  0.76824203  0.28927687     0.25910
C285        C  0.12648028  0.77140317  0.31232258    -0.22080
C286        C  0.13171285  0.74135281  0.31471306     0.20820
F287        F  0.16054148  0.74403492  0.33612991    -0.12040
F288        F  0.11084602  0.67857420  0.30206544    -0.14400
F289        F  0.09182751  0.79720104  0.28552108    -0.14400
F290        F  0.04146459  0.73156166  0.25223548    -0.12040
C291        C  0.44179838  0.05636171  0.44833503     0.25970
C292        C  0.40409862  0.02986909  0.44963208    -0.22140
C293        C  0.39276430  0.99407366  0.46384812     0.20880
C294        C  0.41808702  0.98583010  0.48000879     0.25910
C295        C  0.45522097  0.01307370  0.48236127    -0.22080
C296        C  0.46727370  0.04798902  0.46480747     0.20820
F297        F  0.50323270  0.07452257  0.46610984    -0.12040
F298        F  0.45373066  0.09091093  0.43383378    -0.14400
F299        F  0.40602556  0.95149074  0.49533927    -0.14400
F300        F  0.35688306  0.96715269  0.46334120    -0.12040
C301        C  0.25660430  0.91699850  0.37323036     0.25970
C302        C  0.24198360  0.93829372  0.38708401    -0.22140
C303        C  0.20378129  0.92293752  0.38676939     0.20880
C304        C  0.18100624  0.88826031  0.36937297     0.25910
C305        C  0.19609575  0.86834333  0.35263459    -0.22080
C306        C  0.23382704  0.88234728  0.35623825     0.20820
F307        F  0.24889668  0.86310569  0.34151049    -0.12040
F308        F  0.29316744  0.93013353  0.37495010    -0.14400
F309        F  0.14462728  0.87541107  0.36608456    -0.14400
F310        F  0.18869207  0.94247797  0.40043345    -0.12040
C311        C  0.57329849  0.99344162  0.56376320     0.25970
C312        C  0.56491559  0.95732011  0.55578287    -0.22140
C313        C  0.53321667  0.93368572  0.53310196     0.20880
C314        C  0.51215162  0.94690185  0.51545517     0.25910
C315        C  0.52195990  0.98364624  0.52096188    -0.22080
C316        C  0.55167232  0.00640431  0.54677757     0.20820
F317        F  0.56099005  0.04171509  0.55341833    -0.12040
F318        F  0.60310893  0.01653366  0.58682452    -0.14400
F319        F  0.48305899  0.92424077  0.49123429    -0.14400
F320        F  0.52427095  0.89868222  0.52504068    -0.12040
C321        C  0.75004344  0.09365600  0.64445598     0.25970
C322        C  0.78690212  0.10343939  0.64616571    -0.22140
C323        C  0.79755429  0.08028350  0.62792509     0.20880
C324        C  0.77104139  0.04634513  0.61122012     0.25910
C325        C  0.73365092  0.03522247  0.61305086    -0.22080
C326        C  0.72370001  0.05996496  0.62815059     0.20820
F327        F  0.68816599  0.05112476  0.62833978    -0.12040
F328        F  0.73923383  0.11615945  0.66045507    -0.14400
F329        F  0.78165070  0.02343556  0.59602067    -0.14400
F330        F  0.83312365  0.08938096  0.62887859    -0.12040
C331        C  0.90656151  0.23949753  0.73315554     0.25970
C332        C  0.90000585  0.26841745  0.72502193    -0.22140
C333        C  0.87032868  0.26157515  0.69917973     0.20880
C334        C  0.84975266  0.22787984  0.67929047     0.25910
C335        C  0.85780196  0.19999913  0.68526547    -0.22080
C336        C  0.88545895  0.20547035  0.71348090     0.20820
F337        F  0.89326122  0.17859119  0.72023038    -0.12040
F338        F  0.93445267  0.24458329  0.75844566    -0.14400
F339        F  0.82242772  0.22280900  0.65304686    -0.14400
F340        F  0.86220894  0.28807881  0.69123422    -0.12040
C341        C  0.56661636  0.54797660  0.02738915     0.25970
C342        C  0.52919124  0.53509259  0.02294219    -0.22140
C343        C  0.51463871  0.55526703  0.04031590     0.20880
C344        C  0.53783031  0.58936752  0.05894320     0.25910
C345        C  0.57592754  0.60371845  0.06036930    -0.22080
C346        C  0.58974040  0.58175197  0.04609043     0.20820
F347        F  0.62601699  0.59360282  0.04824611    -0.12040
F348        F  0.58113885  0.52846025  0.01191960    -0.14400
F349        F  0.52322509  0.60915653  0.07326094    -0.14400
F350        F  0.47841146  0.54314947  0.03672350    -0.12040
C351        C  0.74608224  0.67388522  0.10117346     0.25970
C352        C  0.74714519  0.70601999  0.11430116    -0.22140
C353        C  0.77424998  0.72941247  0.14264311     0.20880
C354        C  0.79836786  0.71975213  0.15967671     0.25910
C355        C  0.79532360  0.68613107  0.14946898    -0.22080
C356        C  0.76970837  0.66373806  0.11909486     0.20820
F357        F  0.76532274  0.63061691  0.10954887    -0.12040
F358        F  0.72001489  0.65062385  0.07397460    -0.14400
F359        F  0.82350712  0.74239437  0.18805394    -0.14400
F360        F  0.77652174  0.76104361  0.15507822    -0.12040
C361        C  0.10015236  0.32957545  0.78350874     0.25970
C362        C  0.12573706  0.35230627  0.81366965    -0.22140
C363        C  0.12893605  0.38612091  0.82300983     0.20880
C364        C  0.10512597  0.39582907  0.80505301     0.25910
C365        C  0.07778262  0.37197959  0.77704003    -0.22080
C366        C  0.07664159  0.33953102  0.76493286     0.20820
F367        F  0.05070306  0.31579139  0.73794407    -0.12040
F368        F  0.09559837  0.29624661  0.77483000    -0.14400
F369        F  0.10777284  0.42781535  0.81666900    -0.14400
F370        F  0.15391032  0.40892156  0.85144550    -0.12040
C371        C  0.46237194  0.40731998  0.98834299     0.25970
C372        C  0.45925098  0.43838590  0.98184898    -0.22140
C373        C  0.43209486  0.43605218  0.95480996     0.20880
C374        C  0.40638930  0.40227167  0.93756392     0.25910
C375        C  0.40789404  0.37052233  0.94660748    -0.22080
C376        C  0.43710178  0.37368536  0.97052761     0.20820
F377        F  0.43943377  0.34364221  0.97965797    -0.12040
F378        F  0.48869461  0.40910773  0.01403107    -0.14400
F379        F  0.37916298  0.40029991  0.91336734    -0.14400
F380        F  0.42870519  0.46575817  0.94778665    -0.12040
C381        C  0.22905713  0.34566432  0.85807088     0.25970
C382        C  0.19142704  0.32096778  0.85341033    -0.22140
C383        C  0.17601592  0.28487668  0.86903346     0.20880
C384        C  0.19859998  0.27287552  0.88588829     0.25910
C385        C  0.23682220  0.29691861  0.88714563    -0.22080
C386        C  0.25152936  0.33386934  0.87484627     0.20820
F387        F  0.28799730  0.35850599  0.87772905    -0.12040
F388        F  0.24439137  0.38102832  0.84463717    -0.14400
F389        F  0.18337821  0.23724659  0.89823487    -0.14400
F390        F  0.13954161  0.26067978  0.86541387    -0.12040
C391        C  0.01296315  0.53933014  0.06660771     0.25970
C392        C  0.97933256  0.51139755  0.05090836    -0.22140
C393        C  0.94829428  0.49602640  0.07724025     0.20880
C394        C  0.95028437  0.50962180  0.11766558     0.25910
C395        C  0.98336705  0.53937311  0.13251330    -0.22080
C396        C  0.01496364  0.55342831  0.10688749     0.20820
F397        F  0.04765069  0.58156577  0.12018403    -0.12040
F398        F  0.04366562  0.55388995  0.04240103    -0.14400
F399        F  0.91925952  0.49461669  0.14141404    -0.14400
F400        F  0.91562736  0.46825430  0.06353578    -0.12040
C401        C  0.00113943  0.48654902  0.91238442     0.25970
C402        C  0.97719676  0.46530242  0.94515837    -0.22140
C403        C  0.94968534  0.42887842  0.93705108     0.20880
C404        C  0.94748484  0.41324641  0.89772461     0.25910
C405        C  0.97286386  0.43384676  0.86556382    -0.22080
C406        C  0.99884876  0.47113210  0.87294348     0.20820
F407        F  0.02364343  0.49232266  0.84284516    -0.12040
F408        F  0.02865205  0.52141863  0.91924001    -0.14400
F409        F  0.92146992  0.37747413  0.89189970    -0.14400
F410        F  0.92602014  0.40777429  0.96807604    -0.12040
C411        C  0.88432410  0.69984839  0.05449879     0.25970
C412        C  0.87585404  0.66673901  0.03497208    -0.22140
C413        C  0.85169308  0.63323603  0.05538930     0.20880
C414        C  0.83807686  0.63286486  0.09545822     0.25910
C415        C  0.84765832  0.66585665  0.11571527    -0.22080
C416        C  0.86997714  0.69937405  0.09446035     0.20820
F417        F  0.87942125  0.73160903  0.11331246    -0.12040
F418        F  0.90689836  0.73261887  0.03522000    -0.14400
F419        F  0.81645990  0.60011133  0.11525387    -0.14400
F420        F  0.84300477  0.60072076  0.03776423    -0.12040
C421        C  0.91671859  0.53583979  0.95717585     0.25970
C422        C  0.94377598  0.57102176  0.94304882    -0.22140
C423        C  0.98072912  0.58086838  0.94423789     0.20880
C424        C  0.99067738  0.55728100  0.96248435     0.25910
C425        C  0.96384923  0.52260724  0.97804543    -0.22080
C426        C  0.92668510  0.51146367  0.97370750     0.20820
F427        F  0.90011058  0.47762317  0.98698031    -0.12040
F428        F  0.88078263  0.52542926  0.95587057    -0.14400
F429        F  0.02678210  0.56949352  0.96748698    -0.14400
F430        F  0.00760715  0.61474978  0.93123770    -0.12040
C431        C  0.06513657  0.72828168  0.88285825     0.25970
C432        C  0.04272811  0.74233859  0.89460137    -0.22140
C433        C  0.05660562  0.78031149  0.88966794     0.20880
C434        C  0.09076208  0.80300684  0.87031473     0.25910
C435        C  0.11131175  0.78801873  0.85531902    -0.22080
C436        C  0.09886846  0.75087139  0.86314386     0.20820
F437        F  0.11874277  0.73600430  0.84992566    -0.12040
F438        F  0.05358640  0.69210827  0.88790235    -0.14400
F439        F  0.10273914  0.83912710  0.86399203    -0.14400
F440        F  0.03649878  0.79522570  0.90178133    -0.12040
C441        C  0.14267279  0.35440556  0.95800876     0.25970
C442        C  0.10559797  0.32904087  0.96783988    -0.22140
C443        C  0.08333257  0.30395824  0.93681385     0.20880
C444        C  0.09708504  0.30583455  0.89635852     0.25910
C445        C  0.13333429  0.33255569  0.88596496    -0.22080
C446        C  0.15635710  0.35616867  0.91736533     0.20820
F447        F  0.19136930  0.38254759  0.90797197    -0.12040
F448        F  0.16534544  0.37873185  0.98703943    -0.14400
F449        F  0.07446261  0.28232839  0.86666989    -0.14400
F450        F  0.04769034  0.27851293  0.94487034    -0.12040
C451        C  0.98175563  0.43501278  0.04666415     0.25970
C452        C  0.00199650  0.46199103  0.01589280    -0.22140
C453        C  0.03760936  0.47015282  0.00587831     0.20880
C454        C  0.05180681  0.45004115  0.02409019     0.25910
C455        C  0.03089696  0.42177669  0.05332144    -0.22080
C456        C  0.99627434  0.41541210  0.06568079     0.20820
F457        F  0.97510970  0.38810972  0.09353222    -0.12040
F458        F  0.94687616  0.42559165  0.05598019    -0.14400
F459        F  0.08555134  0.45740700  0.01199517    -0.14400
F460        F  0.05820999  0.49669659  0.97707246    -0.12040
C461        C  0.88516957  0.23325592  0.14005663     0.25970
C462        C  0.87609166  0.19665106  0.14461574    -0.22140
C463        C  0.89923019  0.18564544  0.12722006     0.20880
C464        C  0.93282443  0.21182275  0.10898144     0.25910
C465        C  0.94345802  0.24926578  0.10788710    -0.22080
C466        C  0.91830855  0.25927052  0.12164204     0.20820
F467        F  0.92643658  0.29465979  0.11941680    -0.12040
F468        F  0.86260907  0.24424836  0.15545725    -0.14400
F469        F  0.95573472  0.20081978  0.09483670    -0.14400
F470        F  0.89043646  0.15010891  0.13041573    -0.12040
C471        C  0.50853893  0.98109842  0.37844903     0.25970
C472        C  0.54539840  0.00740571  0.36885146    -0.22140
C473        C  0.56635609  0.03406041  0.39913394     0.20880
C474        C  0.55168039  0.03279463  0.43887838     0.25910
C475        C  0.51582059  0.00504221  0.44931474    -0.22080
C476        C  0.49392533  0.97994802  0.41837846     0.20820
F477        F  0.45912170  0.95295825  0.42758053    -0.12040
F478        F  0.48699751  0.95542443  0.34991302    -0.14400
F479        F  0.57317899  0.05787848  0.46795030    -0.14400
F480        F  0.60172044  0.06041603  0.39121568    -0.12040
C481        C  0.71830686  0.11322012  0.20145035     0.25970
C482        C  0.71105344  0.08190541  0.22474487    -0.22140
C483        C  0.73955910  0.07487150  0.23193856     0.20880
C484        C  0.77410861  0.09751517  0.21362360     0.25910
C485        C  0.78011984  0.12675933  0.18713328    -0.22080
C486        C  0.75243105  0.13516806  0.18234654     0.20820
F487        F  0.75791965  0.16371845  0.15740533    -0.12040
F488        F  0.69145054  0.12082052  0.19410741    -0.14400
F489        F  0.80091857  0.08963209  0.21966685    -0.14400
F490        F  0.73358776  0.04542552  0.25552689    -0.12040
C491        C  0.43727588  0.97041022  0.61809043     0.25970
C492        C  0.44316134  0.00293877  0.63701257    -0.22140
C493        C  0.46529342  0.03667122  0.61579513     0.20880
C494        C  0.47912180  0.03756052  0.57565419     0.25910
C495        C  0.47137052  0.00494237  0.55581553    -0.22080
C496        C  0.45126323  0.97143466  0.57782011     0.20820
F497        F  0.44324019  0.93945341  0.55938288    -0.12040
F498        F  0.41684882  0.93738745  0.63779535    -0.14400
F499        F  0.49888389  0.07035394  0.55528714    -0.14400
F500        F  0.47210616  0.06881502  0.63279425    -0.12040
C501        C  0.23983048  0.85172864  0.82230680     0.25970
C502        C  0.20923959  0.85487612  0.81327473    -0.22140
C503        C  0.21281599  0.88147124  0.78384538     0.20880
C504        C  0.24711773  0.90622429  0.76610130     0.25910
C505        C  0.27833461  0.90506695  0.77824335    -0.22080
C506        C  0.27411494  0.87676586  0.80525014     0.20820
F507        F  0.30353128  0.87429010  0.81657627    -0.12040
F508        F  0.23692138  0.82558829  0.84963491    -0.14400
F509        F  0.25033520  0.93338956  0.74022811    -0.14400
F510        F  0.18391232  0.88559019  0.77514082    -0.12040
C511        C  0.61458640  0.82817062  0.40989166     0.25970
C512        C  0.64543491  0.84624136  0.38342167    -0.22140
C513        C  0.67737323  0.87694800  0.39867235     0.20880
C514        C  0.67804813  0.89035011  0.43890646     0.25910
C515        C  0.64653944  0.87360069  0.46475911    -0.22080
C516        C  0.61499658  0.84176318  0.45008853     0.20820
F517        F  0.58404391  0.82438970  0.47394298    -0.12040
F518        F  0.58353904  0.79810584  0.39622870    -0.14400
F519        F  0.70933472  0.92060374  0.45180569    -0.14400
F520        F  0.70776388  0.89491586  0.37411209    -0.12040
C521        C  0.61555889  0.76135835  0.22034788     0.25970
C522        C  0.64867862  0.77332088  0.19845705    -0.22140
C523        C  0.68146831  0.80165550  0.21577992     0.20880
C524        C  0.68140956  0.81590473  0.25526386     0.25910
C525        C  0.64864255  0.80251631  0.27808561    -0.22080
C526        C  0.61554454  0.77608207  0.25967880     0.20820
F527        F  0.58336916  0.76323734  0.28064028    -0.12040
F528        F  0.58325844  0.73484560  0.20415542    -0.14400
F529        F  0.71372051  0.84175585  0.27202950    -0.14400
F530        F  0.71403884  0.81407765  0.19579667    -0.12040
C531        C  0.59644564  0.84881765  0.30495483     0.25970
C532        C  0.63311994  0.85818445  0.30926044    -0.22140
C533        C  0.66105262  0.89172096  0.29252193     0.20880
C534        C  0.65283504  0.91737136  0.27645317     0.25910
C535        C  0.61640288  0.90931381  0.27555944    -0.22080
C536        C  0.58808466  0.87410767  0.28768677     0.20820
F537        F  0.55263200  0.86539187  0.28635955    -0.12040
F538        F  0.56886028  0.81604967  0.31964541    -0.14400
F539        F  0.68064099  0.95071860  0.26331378    -0.14400
F540        F  0.69651569  0.90055272  0.29401448    -0.12040
C541        C  0.75195329  0.63703662  0.27159213     0.25970
C542        C  0.77335751  0.66293041  0.30235722    -0.22140
C543        C  0.81029475  0.68898329  0.29290800     0.20880
C544        C  0.82477447  0.69035959  0.25281317     0.25910
C545        C  0.80249726  0.66598268  0.22150819    -0.22080
C546        C  0.76636580  0.63874550  0.23158827     0.20820
F547        F  0.74442220  0.61468665  0.20189277    -0.12040
F548        F  0.71632123  0.61129583  0.27921331    -0.14400
F549        F  0.85976394  0.71699924  0.24373255    -0.14400
F550        F  0.83210053  0.71392892  0.32194449    -0.12040
C551        C  0.59904642  0.54184588  0.45161064     0.25970
C552        C  0.61040971  0.57944017  0.45249059    -0.22140
C553        C  0.58556089  0.58968754  0.46639449     0.20880
C554        C  0.55138680  0.56340628  0.48229023     0.25910
C555        C  0.54118432  0.52631724  0.48471133    -0.22080
C556        C  0.56458732  0.51540656  0.46781219     0.20820
F557        F  0.55503411  0.47958987  0.46938037    -0.12040
F558        F  0.62202084  0.53089693  0.43753980    -0.14400
F559        F  0.52868494  0.57446179  0.49702302    -0.14400
F560        F  0.59460968  0.62539467  0.46559809    -0.12040
C561        C  0.70941381  0.78292772  0.38147762     0.25970
C562        C  0.68484462  0.74494014  0.38621912    -0.22140
C563        C  0.64755567  0.73058231  0.37714419     0.20880
C564        C  0.63568396  0.75318039  0.36039648     0.25910
C565        C  0.66081311  0.79041534  0.35205322    -0.22080
C566        C  0.69750610  0.80545596  0.36419974     0.20820
F567        F  0.72237381  0.84140130  0.35668855    -0.12040
F568        F  0.74543562  0.79783339  0.39060077    -0.14400
F569        F  0.59983370  0.73825206  0.35047142    -0.14400
F570        F  0.62265285  0.69435548  0.38328903    -0.12040
C571        C  0.27887794  0.10737674  0.59597620     0.25970
C572        C  0.31207768  0.13232919  0.61533256    -0.22140
C573        C  0.34503751  0.14475512  0.59324016     0.20880
C574        C  0.34510067  0.13161351  0.55315395     0.25910
C575        C  0.31210839  0.10498830  0.53445330    -0.22080
C576        C  0.27885694  0.09354980  0.55598956     0.20820
F577        F  0.24637559  0.06831138  0.53892277    -0.12040
F578        F  0.24661754  0.09517827  0.61654752    -0.14400
F579        F  0.37782361  0.14377993  0.53365074    -0.14400
F580        F  0.37751065  0.16913339  0.61096600    -0.12040
C581        C  0.28658874  0.15732656  0.75100166     0.25970
C582        C  0.31100153  0.17915287  0.71886168    -0.22140
C583        C  0.33870462  0.21522636  0.72779604     0.20880
C584        C  0.34112107  0.22993029  0.76761941     0.25910
C585        C  0.31558031  0.20885261  0.79946741    -0.22080
C586        C  0.28879509  0.17203298  0.79098444     0.20820
F587        F  0.26401874  0.15051547  0.82091978    -0.12040
F588        F  0.25937241  0.12246143  0.74303459    -0.14400
F589        F  0.36751857  0.26544717  0.77418146    -0.14400
F590        F  0.36279712  0.23676107  0.69731123    -0.12040
C591        C  0.29950859  0.08483095  0.69957907     0.25970
C592        C  0.32452110  0.12179147  0.68992037    -0.22140
C593        C  0.36092454  0.13769475  0.70340784     0.20880
C594        C  0.37294536  0.11591745  0.72265933     0.25910
C595        C  0.34847430  0.07798987  0.72920522    -0.22080
C596        C  0.31117382  0.06320269  0.71941806     0.20820
F597        F  0.28610379  0.02721684  0.72680042    -0.12040
F598        F  0.26390142  0.06916817  0.68809552    -0.14400
F599        F  0.40886678  0.13159170  0.73272226    -0.14400
F600        F  0.38528426  0.17380138  0.69578883    -0.12040
C601        C  0.18142964  0.30142067  0.71846428     0.25970
C602        C  0.20717663  0.33497674  0.69925923    -0.22140
C603        C  0.21712317  0.36800685  0.71997744     0.20880
C604        C  0.20267906  0.36729018  0.75994781     0.25910
C605        C  0.17891939  0.33357049  0.78007722    -0.22080
C606        C  0.16786833  0.30076959  0.75862422     0.20820
F607        F  0.14485009  0.26784038  0.77731962    -0.12040
F608        F  0.17117063  0.26894548  0.69965245    -0.14400
F609        F  0.21333237  0.39937521  0.77987137    -0.14400
F610        F  0.24132672  0.40087907  0.70195210    -0.12040
C611        C  0.38065242  0.44275483  0.53210529     0.25970
C612        C  0.37357338  0.41411932  0.56047212    -0.22140
C613        C  0.40269671  0.40901660  0.57205243     0.20880
C614        C  0.43724658  0.43018599  0.55300695     0.25910
C615        C  0.44315778  0.45678095  0.52239926    -0.22080
C616        C  0.41500918  0.46369620  0.51323830     0.20820
F617        F  0.42042923  0.49002679  0.48465412    -0.12040
F618        F  0.35386537  0.44951200  0.52091304    -0.14400
F619        F  0.46416318  0.42316136  0.56248272    -0.14400
F620        F  0.39726567  0.38208979  0.59974000    -0.12040
C621        C  0.31471703  0.21148959  0.61608540     0.25970
C622        C  0.29149450  0.18519008  0.64605611    -0.22140
C623        C  0.25736823  0.18141203  0.65482784     0.20880
C624        C  0.24791403  0.20552986  0.63685783     0.25910
C625        C  0.27239495  0.23385858  0.60943216    -0.22080
C626        C  0.30507830  0.23537734  0.59754024     0.20820
F627        F  0.32925211  0.26192345  0.57072055    -0.12040
F628        F  0.34821973  0.21644447  0.60768476    -0.14400
F629        F  0.21560268  0.20229885  0.64817820    -0.14400
F630        F  0.23404611  0.15570040  0.68297083    -0.12040
C631        C  0.45075442  0.98034974  0.88058178     0.25970
C632        C  0.44743472  0.01030965  0.86721209    -0.22140
C633        C  0.46087664  0.04108890  0.89347154     0.20880
C634        C  0.47454652  0.04068587  0.93338944     0.25910
C635        C  0.47521590  0.00965273  0.94787477    -0.22080
C636        C  0.46473961  0.98018450  0.92043471     0.20820
F637        F  0.46639610  0.95042685  0.93293362    -0.12040
F638        F  0.43852809  0.95019819  0.85619282    -0.14400
F639        F  0.48615818  0.07032426  0.95843667    -0.14400
F640        F  0.45989118  0.07127032  0.88109150    -0.12040
C641        C  0.56501002  0.03972210  0.11135529     0.25970
C642        C  0.54766395  0.00701566  0.13544221    -0.22140
C643        C  0.51553776  0.97665905  0.11968716     0.20880
C644        C  0.50239335  0.97821647  0.07973938     0.25910
C645        C  0.52029172  0.01060301  0.05515473    -0.22080
C646        C  0.55130500  0.04152307  0.07197506     0.20820
F647        F  0.56973482  0.07314540  0.04912151    -0.12040
F648        F  0.59649522  0.06952873  0.12471156    -0.14400
F649        F  0.47404023  0.94702299  0.06402627    -0.14400
F650        F  0.49743700  0.94485481  0.14226930    -0.12040
C651        C  0.21864127  0.84875747  0.21778854     0.25970
C652        C  0.20956691  0.87287204  0.19791935    -0.22140
C653        C  0.18486389  0.88057338  0.21820977     0.20880
C654        C  0.17152859  0.86652676  0.25842747     0.25910
C655        C  0.18206030  0.84407104  0.27907809    -0.22080
C656        C  0.20472940  0.83424877  0.25796923     0.20820
F657        F  0.21495361  0.81223429  0.27716271    -0.12040
F658        F  0.24171139  0.83997412  0.19888643    -0.14400
F659        F  0.14942863  0.87619536  0.27803580    -0.14400
F660        F  0.17521930  0.90354508  0.20032544    -0.12040
C661        C  0.18633988  0.82695083  0.91721371     0.25970
C662        C  0.18202143  0.84753908  0.88539476    -0.22140
C663        C  0.18837004  0.88260839  0.89458734     0.20880
C664        C  0.20069731  0.89777669  0.93430128     0.25910
C665        C  0.20744615  0.87827781  0.96560042    -0.22080
C666        C  0.19914038  0.84222314  0.95694780     0.20820
F667        F  0.20456291  0.82212088  0.98636818    -0.12040
F668        F  0.18015745  0.79288384  0.90908528    -0.14400
F669        F  0.20763784  0.93229065  0.94126521    -0.14400
F670        F  0.18386447  0.90279452  0.86442850    -0.12040
C671        C  0.38553637  0.94341817  0.03711749     0.25970
C672        C  0.37672566  0.96888980  0.05219593    -0.22140
C673        C  0.40412304  0.00636934  0.05326104     0.20880
C674        C  0.43941940  0.01820702  0.03797630     0.25910
C675        C  0.44734603  0.99293370  0.02008419    -0.22080
C676        C  0.42018932  0.95542524  0.02026003     0.20820
F677        F  0.42665998  0.93038896  0.00237269    -0.12040
F678        F  0.35972567  0.90713575  0.03555831    -0.14400
F679        F  0.46522881  0.05449555  0.03871417    -0.14400
F680        F  0.39648970  0.03160143  0.06819268    -0.12040
C681        C  0.94698805  0.51098405  0.38651518     0.25970
C682        C  0.97972491  0.53880477  0.36758064    -0.22140
C683        C  0.01287358  0.55175768  0.38940955     0.20880
C684        C  0.01311073  0.53851394  0.42967708     0.25910
C685        C  0.98040380  0.51185679  0.44920710    -0.22080
C686        C  0.94737143  0.49755995  0.42700215     0.20820
F687        F  0.91533245  0.47195191  0.44529106    -0.12040
F688        F  0.91453041  0.49729659  0.36629812    -0.14400
F689        F  0.04546272  0.55261464  0.45022042    -0.14400
F690        F  0.04512585  0.57865067  0.37275748    -0.12040
C691        C  0.00929381  0.45795788  0.56303363     0.25970
C692        C  0.98054020  0.46391775  0.55350779    -0.22140
C693        C  0.95557694  0.45930703  0.58529857     0.20880
C694        C  0.95812995  0.44687191  0.62544188     0.25910
C695        C  0.98598401  0.43914804  0.63455366    -0.22080
C696        C  0.01220952  0.44597530  0.60315843     0.20820
F697        F  0.03979961  0.43945789  0.61048958    -0.12040
F698        F  0.03407166  0.46275286  0.53291211    -0.14400
F699        F  0.93255235  0.44124686  0.65487107    -0.14400
F700        F  0.92755848  0.46490960  0.57681946    -0.12040
C701        C  0.67861402  0.79406084  0.89705323     0.25970
C702        C  0.64966610  0.79974848  0.88775202    -0.22140
C703        C  0.62583148  0.79684094  0.92016027     0.20880
C704        C  0.62926424  0.78562152  0.96062305     0.25910
C705        C  0.65694645  0.77766624  0.96936219    -0.22080
C706        C  0.68248137  0.78345091  0.93754240     0.20820
F707        F  0.70972258  0.77637042  0.94466666    -0.12040
F708        F  0.70219495  0.79713418  0.86623813    -0.14400
F709        F  0.60470013  0.78127852  0.99080967    -0.14400
F710        F  0.59766164  0.80225154  0.91190066    -0.12040
C711        C  0.67670077  0.86350530  0.75768344     0.25970
C712        C  0.64450534  0.84147722  0.78101931    -0.22140
C713        C  0.61050640  0.83065683  0.76255590     0.20880
C714        C  0.60894789  0.84347663  0.72214963     0.25910
C715        C  0.64142451  0.86662876  0.69932234    -0.22080
C716        C  0.67521924  0.87548493  0.71714203     0.20820
F717        F  0.70723024  0.89772965  0.69646848    -0.12040
F718        F  0.70993064  0.87440752  0.77472267    -0.14400
F719        F  0.57579042  0.83401275  0.70588593    -0.14400
F720        F  0.57898951  0.80926946  0.78444729    -0.12040
C721        C  0.78944258  0.14060341  0.04343102     0.25970
C722        C  0.77907430  0.10403116  0.03428935    -0.22140
C723        C  0.78460817  0.08331947  0.06513504     0.20880
C724        C  0.79807640  0.09803221  0.10476219     0.25910
C725        C  0.80639167  0.13369532  0.11457408    -0.22080
C726        C  0.80290625  0.15523703  0.08325430     0.20820
F727        F  0.81047056  0.18968200  0.09193641    -0.12040
F728        F  0.78521324  0.16184251  0.01448653    -0.14400
F729        F  0.80166367  0.07677151  0.13425311    -0.14400
F730        F  0.77539336  0.04811525  0.05785982    -0.12040
C731        C  0.78581007  0.14295400  0.74107919     0.25970
C732        C  0.80351904  0.12756958  0.71956860    -0.22140
C733        C  0.80896118  0.10141325  0.74024358     0.20880
C734        C  0.79560950  0.08956850  0.78104690     0.25910
C735        C  0.77624632  0.10355333  0.80205044    -0.22080
C736        C  0.77230160  0.13108029  0.78198299     0.20820
F737        F  0.75437550  0.14574938  0.80135443    -0.12040
F738        F  0.77971946  0.16792366  0.72169663    -0.14400
F739        F  0.79999174  0.06291112  0.79895643    -0.14400
F740        F  0.82609119  0.08622180  0.72018965    -0.12040
C741        C  0.64550914  0.91374930  0.87850251     0.25970
C742        C  0.68270393  0.93745634  0.88816851    -0.22140
C743        C  0.70725092  0.92476639  0.88356203     0.20880
C744        C  0.69530884  0.89016885  0.86634263     0.25910
C745        C  0.65879966  0.86799384  0.85346001    -0.22080
C746        C  0.63376139  0.87942779  0.86115953     0.20820
F747        F  0.59802119  0.85777092  0.85057275    -0.12040
F748        F  0.62055748  0.92413978  0.88477290    -0.14400
F749        F  0.71981498  0.87924791  0.86001137    -0.14400
F750        F  0.74320944  0.94667079  0.89309944    -0.12040
C751        C  0.58410869  0.99422055  0.96434961     0.25970
C752        C  0.60943162  0.02895222  0.94727808    -0.22140
C753        C  0.59927054  0.05560627  0.94331251     0.20880
C754        C  0.56591043  0.04885679  0.96025287     0.25910
C755        C  0.54235893  0.01529840  0.98083963    -0.22080
C756        C  0.55091371  0.98751649  0.98090595     0.20820
F757        F  0.52792612  0.95445133  0.99938614    -0.12040
F758        F  0.59201448  0.96705406  0.96650951    -0.14400
F759        F  0.55810132  0.07608552  0.95969176    -0.14400
F760        F  0.62268455  0.08907460  0.92601900    -0.12040
C761        C  0.81809704  0.70604464  0.59295343     0.25970
C762        C  0.80663854  0.67263523  0.61413051    -0.22140
C763        C  0.78300502  0.63954832  0.59374773     0.20880
C764        C  0.76977221  0.63962344  0.55365282     0.25910
C765        C  0.77930087  0.67296003  0.53315488    -0.22080
C766        C  0.80432977  0.70625948  0.55284281     0.20820
F767        F  0.81472436  0.73900289  0.53386522    -0.12040
F768        F  0.84104443  0.73839187  0.61198480    -0.14400
F769        F  0.74592662  0.60682806  0.53604084    -0.14400
F770        F  0.77171117  0.60686950  0.61337760    -0.12040
C771        C  0.85339507  0.69356878  0.75162175     0.25970
C772        C  0.85084817  0.67001583  0.71934782    -0.22140
C773        C  0.85711738  0.64131173  0.72858684     0.20880
C774        C  0.86756616  0.63719203  0.76892734     0.25910
C775        C  0.87249650  0.66214941  0.80080013    -0.22080
C776        C  0.86429321  0.68979444  0.79202848     0.20820
F777        F  0.86792853  0.71393702  0.82212773    -0.12040
F778        F  0.84752365  0.72156156  0.74336585    -0.14400
F779        F  0.87488461  0.61000270  0.77594570    -0.14400
F780        F  0.85437541  0.61795936  0.69792322    -0.12040
C781        C  0.55087487  0.51149980  0.88798576     0.25970
C782        C  0.54359862  0.53653515  0.86728150    -0.22140
C783        C  0.52100222  0.54716860  0.88722190     0.20880
C784        C  0.50769663  0.53471948  0.92785187     0.25910
C785        C  0.51604354  0.51086110  0.94916852    -0.22080
C786        C  0.53682582  0.49842716  0.92854692     0.20820
F787        F  0.54498209  0.47511318  0.94846188    -0.12040
F788        F  0.57204891  0.50021277  0.86928361    -0.14400
F789        F  0.48762290  0.54706627  0.94707234    -0.14400
F790        F  0.51374400  0.57164331  0.86856724    -0.12040
C791        C  0.51413458  0.54189484  0.61909122     0.25970
C792        C  0.54070550  0.53654155  0.63891657    -0.22140
C793        C  0.55249134  0.51497147  0.61866731     0.20880
C794        C  0.54005670  0.50141870  0.57844919     0.25910
C795        C  0.51541807  0.50877367  0.55767146    -0.22080
C796        C  0.50153871  0.52802200  0.57879888     0.20820
F797        F  0.47748317  0.53527818  0.55948652    -0.12040
F798        F  0.50135090  0.56174757  0.63789513    -0.14400
F799        F  0.55337610  0.48233381  0.55892355    -0.14400
F800        F  0.57768791  0.50861579  0.63661318    -0.12040
C801        C  0.72739049  0.61329721  0.72406483     0.25970
C802        C  0.71345724  0.63703612  0.72610600    -0.22140
C803        C  0.73573686  0.67370393  0.71213916     0.20880
C804        C  0.76957451  0.68532567  0.69314709     0.25910
C805        C  0.78206174  0.66079436  0.68803617    -0.22080
C806        C  0.76147397  0.62512886  0.70510588     0.20820
F807        F  0.77320936  0.60102250  0.70093960    -0.12040
F808        F  0.70710367  0.57795504  0.73779996    -0.14400
F809        F  0.78958568  0.72030085  0.67815093    -0.14400
F810        F  0.72420276  0.69808132  0.71517430    -0.12040
C811        C  0.63914160  0.73344302  0.76683713     0.25970
C812        C  0.60936237  0.70088933  0.78331859    -0.22140
C813        C  0.58765372  0.70294065  0.81515201     0.20880
C814        C  0.59646280  0.73685446  0.83157778     0.25910
C815        C  0.62791940  0.76931720  0.81755175    -0.22080
C816        C  0.64888233  0.76736732  0.78448752     0.20820
F817        F  0.68060110  0.79757074  0.77190157    -0.12040
F818        F  0.66085722  0.73211579  0.73642185    -0.14400
F819        F  0.57524500  0.73771645  0.86292679    -0.14400
F820        F  0.55856392  0.67190406  0.83140643    -0.12040
C821        C  0.14290808  0.77784327  0.45567231     0.25970
C822        C  0.10896957  0.77359733  0.46753823    -0.22140
C823        C  0.09029444  0.78312108  0.43829985     0.20880
C824        C  0.10406030  0.79445554  0.39756378     0.25910
C825        C  0.13708711  0.79724242  0.38525987    -0.22080
C826        C  0.15695535  0.78985085  0.41490801     0.20820
F827        F  0.18913283  0.79270736  0.40382794    -0.12040
F828        F  0.16208660  0.76951548  0.48309944    -0.14400
F829        F  0.08442839  0.80171737  0.36966151    -0.14400
F830        F  0.05759223  0.77959764  0.44822411    -0.12040
C831        C  0.11336005  0.80923124  0.75896324     0.25970
C832        C  0.13593474  0.79982031  0.78114742    -0.22140
C833        C  0.14719700  0.77760467  0.76168526     0.20880
C834        C  0.13429826  0.76333875  0.72149137     0.25910
C835        C  0.11059569  0.77177848  0.69991223    -0.22080
C836        C  0.10110949  0.79569907  0.71866141     0.20820
F837        F  0.07798619  0.80418749  0.69914476    -0.12040
F838        F  0.10218529  0.83075068  0.77692781    -0.14400
F839        F  0.14451982  0.74088868  0.70396350    -0.14400
F840        F  0.16927105  0.76838492  0.78236258    -0.12040
C841        C  0.94583624  0.73150517  0.64312259     0.25970
C842        C  0.94795977  0.70825159  0.61359768    -0.22140
C843        C  0.91540314  0.67778824  0.59887603     0.20880
C844        C  0.88154145  0.66887928  0.61637816     0.25910
C845        C  0.87970442  0.69104636  0.64778558    -0.22080
C846        C  0.91201808  0.72323366  0.65961885     0.20820
F847        F  0.91108996  0.74559307  0.68924398    -0.12040
F848        F  0.97670624  0.76153972  0.65730463    -0.14400
F849        F  0.85123585  0.63684151  0.60550305    -0.14400
F850        F  0.91660376  0.65470147  0.57048561    -0.12040
C851        C  0.03626343  0.58786543  0.56144667     0.25970
C852        C  0.01264727  0.60196330  0.56245070    -0.22140
C853        C  0.97661691  0.57998608  0.54736302     0.20880
C854        C  0.96579836  0.54659278  0.52802651     0.25910
C855        C  0.99040963  0.53416244  0.52379322    -0.22080
C856        C  0.02518899  0.55418047  0.54219579     0.20820
F857        F  0.04937110  0.54251153  0.53877119    -0.12040
F858        F  0.07081915  0.60759933  0.57668740    -0.14400
F859        F  0.93169263  0.52714842  0.51144778    -0.14400
F860        F  0.95228424  0.59160873  0.54904438    -0.12040
C861        C  0.82902386  0.17595422  0.58221330     0.25970
C862        C  0.85077666  0.17301492  0.61337056    -0.22140
C863        C  0.88657580  0.18205570  0.60304003     0.20880
C864        C  0.90127617  0.19600038  0.56312006     0.25910
C865        C  0.88041998  0.20132195  0.53257567    -0.22080
C866        C  0.84364015  0.18988752  0.54213701     0.20820
F867        F  0.82232963  0.19412934  0.51361557    -0.12040
F868        F  0.79446339  0.16775350  0.59139115    -0.14400
F869        F  0.93644230  0.20556522  0.55506496    -0.14400
F870        F  0.90794750  0.17880031  0.63235774    -0.12040
C871        C  0.85134260  0.21326316  0.28113039     0.25970
C872        C  0.87864270  0.20877917  0.30043990    -0.22140
C873        C  0.89156670  0.18853663  0.27930646     0.20880
C874        C  0.87893718  0.17486076  0.23911438     0.25910
C875        C  0.85307907  0.18090066  0.21909892    -0.22080
C876        C  0.83874556  0.19949714  0.24078958     0.20820
F877        F  0.81402816  0.20610470  0.22209066    -0.12040
F878        F  0.83759650  0.23197334  0.30063302    -0.14400
F879        F  0.89300200  0.15669387  0.21904026    -0.14400
F880        F  0.91773815  0.18330494  0.29656099    -0.12040
C881        C  0.91815456  0.37291084  0.47160597     0.25970
C882        C  0.94281945  0.37044133  0.44441181    -0.22140
C883        C  0.97565631  0.40276055  0.43289584     0.20880
C884        C  0.98503229  0.43632107  0.45135768     0.25910
C885        C  0.96146800  0.43803310  0.48100886    -0.22080
C886        C  0.92734040  0.40642662  0.48954740     0.20820
F887        F  0.90361816  0.40761243  0.51714123    -0.12040
F888        F  0.88575384  0.34252099  0.48230121    -0.14400
F889        F  0.01836356  0.46635005  0.44298744    -0.14400
F890        F  0.00016898  0.40136950  0.40676314    -0.12040
C891        C  0.28180739  0.11606205  0.24760624     0.25970
C892        C  0.31312553  0.13383802  0.22187453    -0.22140
C893        C  0.34689546  0.14126625  0.23814597     0.20880
C894        C  0.34885078  0.12875255  0.27841863     0.25910
C895        C  0.31701337  0.10885391  0.30340830    -0.22080
C896        C  0.28366943  0.10376812  0.28799452     0.20820
F897        F  0.25241184  0.08562354  0.31124238    -0.12040
F898        F  0.24904423  0.10955484  0.23314647    -0.14400
F899        F  0.38174988  0.13501761  0.29216906    -0.14400
F900        F  0.37788571  0.15960183  0.21457640    -0.12040
C901        C  0.27881301  0.19378337  0.06354492     0.25970
C902        C  0.30831496  0.20553834  0.03509979    -0.22140
C903        C  0.33827883  0.20205788  0.04725889     0.20880
C904        C  0.33963352  0.18923979  0.08754200     0.25910
C905        C  0.31111201  0.17946568  0.11656612    -0.22080
C906        C  0.28025784  0.18087425  0.10383542     0.20820
F907        F  0.25188285  0.17074378  0.13090481    -0.12040
F908        F  0.24897749  0.19577382  0.05299044    -0.14400
F909        F  0.36972423  0.18803406  0.09870868    -0.14400
F910        F  0.36722284  0.21258103  0.02091292    -0.12040
C911        C  0.26357575  0.08196719  0.14097750     0.25970
C912        C  0.30026195  0.10904646  0.14830964    -0.22140
C913        C  0.32824236  0.10318618  0.13490360     0.20880
C914        C  0.31975115  0.06963022  0.11781546     0.25910
C915        C  0.28305467  0.04123982  0.11384232    -0.22080
C916        C  0.25496753  0.04818088  0.12374823     0.20820
F917        F  0.21927939  0.02146731  0.11968957    -0.12040
F918        F  0.23609312  0.08747983  0.15254057    -0.14400
F919        F  0.34755557  0.06449869  0.10640019    -0.14400
F920        F  0.36393289  0.12926217  0.14029183    -0.12040
C921        C  0.09934826  0.30531878  0.22277296     0.25970
C922        C  0.11244282  0.33889773  0.20098422    -0.22140
C923        C  0.14008059  0.37145013  0.21969972     0.20880
C924        C  0.15302154  0.37048222  0.26006564     0.25910
C925        C  0.13845803  0.33703854  0.28229519    -0.22080
C926        C  0.11215156  0.30450276  0.26288579     0.20820
F927        F  0.09791439  0.27175122  0.28342732    -0.12040
F928        F  0.07270754  0.27318989  0.20629382    -0.14400
F929        F  0.17836163  0.40234485  0.27824953    -0.14400
F930        F  0.15391522  0.40430837  0.19949744    -0.12040
C931        C  0.18646021  0.35797194  0.41881074     0.25970
C932        C  0.18449380  0.33486169  0.38632378    -0.22140
C933        C  0.19147204  0.30658718  0.39531481     0.20880
C934        C  0.20181476  0.30235152  0.43568069     0.25910
C935        C  0.20570916  0.32661836  0.46797528    -0.22080
C936        C  0.19692960  0.35389909  0.45932920     0.20820
F937        F  0.19984435  0.37765247  0.48955610    -0.12040
F938        F  0.18018718  0.38572742  0.41077552    -0.14400
F939        F  0.20944992  0.27535743  0.44249413    -0.14400
F940        F  0.18918541  0.28353926  0.36451901    -0.12040
C941        C  0.10335932  0.35102226  0.36171783     0.25970
C942        C  0.11523139  0.32599996  0.35684686    -0.22140
C943        C  0.09465862  0.29072857  0.37488291     0.20880
C944        C  0.06084095  0.27956709  0.39414161     0.25910
C945        C  0.04729559  0.30367167  0.39567370    -0.22080
C946        C  0.06992799  0.34017823  0.38124846     0.20820
F947        F  0.05891365  0.36499770  0.38365614    -0.12040
F948        F  0.12345449  0.38563052  0.34564186    -0.14400
F949        F  0.04054128  0.24457804  0.40899580    -0.14400
F950        F  0.10602183  0.26628504  0.37117648    -0.12040
C951        C  0.41805452  0.44584444  0.10468859     0.25970
C952        C  0.43868807  0.44128012  0.13619301    -0.22140
C953        C  0.47485329  0.45045609  0.12666256     0.20880
C954        C  0.48921601  0.46203254  0.08599201     0.25910
C955        C  0.46776494  0.46469231  0.05426700    -0.22080
C956        C  0.43245597  0.45733720  0.06421678     0.20820
F957        F  0.41137286  0.46030460  0.03427351    -0.12040
F958        F  0.38322311  0.43760807  0.11229168    -0.14400
F959        F  0.52331775  0.46873662  0.07703070    -0.14400
F960        F  0.49596453  0.44703709  0.15620860    -0.12040
C961        C  0.44865234  0.41305464  0.40194487     0.25970
C962        C  0.44618572  0.43508407  0.37022475    -0.22140
C963        C  0.45925164  0.47239518  0.37881833     0.20880
C964        C  0.47189720  0.48648777  0.41902826     0.25910
C965        C  0.47202520  0.46368584  0.45124498    -0.22080
C966        C  0.46138052  0.42724775  0.44196036     0.20820
F967        F  0.46173114  0.40478309  0.47241982    -0.12040
F968        F  0.43724076  0.37722934  0.39500801    -0.14400
F969        F  0.48145956  0.52162824  0.42720498    -0.14400
F970        F  0.45798900  0.49488148  0.34907474    -0.12040
C971        C  0.24303122  0.38952952  0.32282645     0.25970
C972        C  0.21159923  0.35562917  0.31392329    -0.22140
C973        C  0.21363249  0.33275788  0.28377032     0.20880
C974        C  0.24736408  0.34235100  0.26539718     0.25910
C975        C  0.27959705  0.37480911  0.27738043    -0.22080
C976        C  0.27670136  0.39910162  0.30474354     0.20820
F977        F  0.30677961  0.43128459  0.31594291    -0.12040
F978        F  0.24150326  0.41253121  0.35106473    -0.14400
F979        F  0.24877619  0.31841607  0.23851401    -0.14400
F980        F  0.18367961  0.29972713  0.27483864    -0.12040
C981        C  0.31742665  0.24492909  0.23260770     0.25970
C982        C  0.35471828  0.27275235  0.23001424    -0.22140
C983        C  0.37952708  0.26493155  0.21027334     0.20880
C984        C  0.36690301  0.23142922  0.19026852     0.25910
C985        C  0.32936699  0.20511281  0.18969874    -0.22080
C986        C  0.30490525  0.21134981  0.21254343     0.20820
F987        F  0.26865319  0.18566064  0.21374001    -0.12040
F988        F  0.29261146  0.25093275  0.25213216    -0.14400
F989        F  0.39131199  0.22528258  0.17008573    -0.14400
F990        F  0.41588800  0.29029137  0.20864035    -0.12040
loop_ 
_geom_bond_atom_site_label_1 
_geom_bond_atom_site_label_2 
_geom_bond_distance 
_geom_bond_site_symmetry_2 
_ccdc_geom_bond_type 
O1            C4   1.266       .  A
O1           Cd6   2.471       .  S
C2           O11   1.264       .  A
C2            O7   1.265       .  A
C2          C982   1.481       .  S
O3            C9   1.264       .  A
O3           Cd6   2.467       .  S
C4           O12   1.264       .  A
C4          C962   1.487       .  S
C5           O10   1.265       .  A
C5            O8   1.263       .  A
C5          C952   1.484       .  S
Cd6          O13   2.451       .  S
Cd6          O12   2.466       .  S
Cd6          O11   2.464       .  S
Cd6           O7   2.454       .  S
Cd6          O10   2.464       .  S
Cd6           O8   2.467       .  S
C9           O13   1.266       .  A
C9          C975   1.482       .  S
C14          C15   1.357       .  D
C14         C932   1.487       .  S
C14         C972   1.484       .  S
C15         C925   1.488       .  S
C15         C942   1.484       .  S
C16          C17   1.355       .  D
C16         C905   1.489       .  S
C16         C985   1.482       .  S
C17         C892   1.488       .  S
C17         C912   1.481       .  S
O18          C21   1.267       .  A
O18         Cd23   2.472       .  S
C19          O28   1.262   1_455  A
C19          O24   1.268   1_455  A
C19         C945   1.484       .  S
O20          C26   1.264       .  A
O20         Cd23   2.487       .  S
C21          O29   1.265       .  A
C21         C865   1.488       .  S
C22          O27   1.264       .  A
C22          O25   1.266       .  A
C22         C882   1.477       .  S
Cd23         O30   2.460       .  S
Cd23         O29   2.466       .  S
Cd23         O28   2.427       .  S
Cd23         O24   2.494       .  S
Cd23         O27   2.474       .  S
Cd23         O25   2.452       .  S
C26          O30   1.263       .  A
C26         C872   1.486       .  S
O31          C34   1.268       .  A
O31         Cd36   2.490       .  S
C32          O41   1.261       .  A
C32          O37   1.267       .  A
C32         C852   1.485       .  S
O33          C39   1.266       .  A
O33         Cd36   2.479   1_655  S
C34          O42   1.265       .  A
C34         C835   1.482       .  S
C35          O40   1.263       .  A
C35          O38   1.263       .  A
C35         C822   1.484       .  S
Cd36         O43   2.448       .  S
Cd36         O42   2.446       .  S
Cd36         O41   2.431       .  S
Cd36         O37   2.502       .  S
Cd36         O40   2.466       .  S
Cd36         O38   2.485       .  S
C39          O43   1.265   1_655  A
C39         C842   1.476       .  S
O44          C47   1.268       .  A
O44         Cd49   2.485       .  S
C45          O54   1.262       .  A
C45          O50   1.267       .  A
C45         C802   1.483       .  S
O46          C52   1.264       .  A
O46         Cd49   2.482       .  S
C47          O55   1.265       .  A
C47         C782   1.479       .  S
C48          O53   1.266       .  A
C48          O51   1.265       .  A
C48         C812   1.471       .  S
Cd49         O56   2.453       .  S
Cd49         O55   2.437       .  S
Cd49         O54   2.429       .  S
Cd49         O50   2.500       .  S
Cd49         O53   2.477       .  S
Cd49         O51   2.436       .  S
C52          O56   1.263       .  A
C52         C792   1.484       .  S
C57          C58   1.359       .  D
C57         C772   1.487       .  S
C57         C845   1.489       .  S
C58         C762   1.487       .  S
C58         C805   1.486       .  S
O59          C62   1.268       .  A
O59         Cd64   2.485   1_565  S
C60          O69   1.264       .  A
C60          O65   1.264       .  A
C60         C722   1.487   1_556  S
O61          C67   1.265       .  A
O61         Cd64   2.476       .  S
C62          O70   1.264       .  A
C62         C742   1.478       .  S
C63          O68   1.268       .  A
C63          O66   1.264       .  A
C63         C752   1.477       .  S
Cd64         O71   2.453       .  S
Cd64         O70   2.422   1_545  S
Cd64         O69   2.478       .  S
Cd64         O65   2.468       .  S
Cd64         O68   2.490       .  S
Cd64         O66   2.416       .  S
C67          O71   1.264       .  A
C67         C735   1.484       .  S
C72          C73   1.358       .  D
C72         C702   1.487       .  S
C72         C815   1.489       .  S
C73         C712   1.486       .  S
C73         C745   1.483       .  S
C74          C75   1.358       .  D
C74         C685   1.490       .  S
C74         C855   1.485       .  S
C75         C692   1.488       .  S
C75         C885   1.485       .  S
O76          C79   1.267       .  A
O76         Cd81   2.474       .  S
C77          O86   1.264       .  A
C77          O82   1.265       .  A
C77         C652   1.484       .  S
O78          C84   1.269   1_565  A
O78         Cd81   2.487       .  S
C79          O87   1.263       .  A
C79         C672   1.474       .  S
C80          O85   1.264       .  A
C80          O83   1.263       .  A
C80         C665   1.486   1_554  S
Cd81         O88   2.412       .  S
Cd81         O87   2.449       .  S
Cd81         O86   2.455       .  S
Cd81         O82   2.489       .  S
Cd81         O85   2.472       .  S
Cd81         O83   2.476       .  S
C84          O88   1.265   1_545  A
C84         C915   1.474       .  S
C89          C90   1.361   1_554  D
C89         C645   1.499       .  S
C89         C755   1.483   1_554  S
C90         C635   1.491       .  S
C90         C675   1.483   1_546  S
O91          C94   1.267       .  A
O91         Cd96   2.490       .  S
C92         O101   1.264       .  A
C92          O97   1.265       .  A
C92         C612   1.483       .  S
O93          C99   1.265       .  A
O93         Cd96   2.475       .  S
C94         O102   1.264       .  A
C94         C602   1.480       .  S
C95         O100   1.265       .  A
C95          O98   1.263       .  A
C95         C935   1.485       .  S
Cd96        O103   2.454       .  S
Cd96        O102   2.440       .  S
Cd96        O101   2.439       .  S
Cd96         O97   2.483       .  S
Cd96        O100   2.469       .  S
Cd96         O98   2.463       .  S
C99         O103   1.265       .  A
C99         C625   1.483       .  S
C104        C105   1.358       .  D
C104        C582   1.488       .  S
C104        C622   1.487       .  S
C105        C572   1.488       .  S
C105        C592   1.485       .  S
O106        C109   1.268       .  A
O106       Cd111   2.489       .  S
C107        O116   1.264       .  A
C107        O112   1.263       .  A
C107        C542   1.484       .  S
O108        C114   1.268       .  A
O108       Cd111   2.497       .  S
C109        O117   1.266       .  A
C109        C552   1.480       .  S
C110        O115   1.266       .  A
C110        O113   1.264       .  A
C110        C765   1.486       .  S
Cd111       O118   2.431       .  S
Cd111       O117   2.422       .  S
Cd111       O116   2.483       .  S
Cd111       O112   2.460       .  S
Cd111       O115   2.496       .  S
Cd111       O113   2.449       .  S
C114        O118   1.263       .  A
C114        C562   1.479       .  S
C119        C120   1.357       .  D
C119        C525   1.488       .  S
C119        C565   1.484       .  S
C120        C512   1.490       .  S
C120        C532   1.484       .  S
C121        C122   1.357       .  D
C121        C615   1.485       .  S
C121        C965   1.488       .  S
C122        C555   1.483       .  S
C122        C795   1.486       .  S
O123        C126   1.265       .  A
O123       Cd128   2.476   1_565  S
C124        O133   1.262       .  A
C124        O129   1.264   1_545  A
C124        C492   1.485       .  S
O125        C131   1.268       .  A
O125       Cd128   2.506       .  S
C126        O134   1.266       .  A
C126        C505   1.476       .  S
C127        O132   1.267       .  A
C127        O130   1.264   1_545  A
C127        C632   1.487       .  S
Cd128       O135   2.433       .  S
Cd128       O134   2.450   1_545  S
Cd128       O133   2.460       .  S
Cd128       O129   2.486   1_545  S
Cd128       O132   2.482       .  S
Cd128       O130   2.464   1_545  S
C131        O135   1.262       .  A
C131        C595   1.486       .  S
O136        C139   1.268       .  A
O136       Cd141   2.466   1_545  S
C137        O146   1.262   1_545  A
C137        O142   1.263       .  A
C137        C472   1.486       .  S
O138        C144   1.266   1_565  A
O138       Cd141   2.494       .  S
C139        O147   1.264       .  A
C139        C482   1.473       .  S
C140        O145   1.268       .  A
C140        O143   1.263       .  A
C140        C535   1.474       .  S
Cd141       O148   2.469   1_565  S
Cd141       O147   2.441   1_565  S
Cd141       O146   2.483       .  S
Cd141       O142   2.475   1_565  S
Cd141       O145   2.503       .  S
Cd141       O143   2.427       .  S
C144        O148   1.262       .  A
C144        C642   1.488       .  S
O149        C152   1.267   1_455  A
O149       Cd154   2.500       .  S
C150        O159   1.266       .  A
C150        O155   1.266       .  A
C150        C442   1.486   1_554  S
O151        C157   1.264       .  A
O151       Cd154   2.467       .  S
C152        O160   1.263       .  A
C152        C465   1.483       .  S
C153        O158   1.265       .  A
C153        O156   1.262       .  A
C153        C922   1.486       .  S
Cd154       O161   2.465       .  S
Cd154       O160   2.420   1_455  S
Cd154       O159   2.469       .  S
Cd154       O155   2.455       .  S
Cd154       O158   2.506       .  S
Cd154       O156   2.443       .  S
C157        O161   1.265       .  A
C157        C455   1.479       .  S
O162        C165   1.268   1_655  A
O162       Cd167   2.509       .  S
C163        O172   1.264       .  A
C163        O168   1.267       .  A
C163        C412   1.480   1_556  S
O164        C170   1.263       .  A
O164       Cd167   2.476       .  S
C165        O173   1.261   1_455  A
C165        C432   1.486       .  S
C166        O171   1.264       .  A
C166        O169   1.267       .  A
C166        C422   1.476       .  S
Cd167       O174   2.474       .  S
Cd167       O173   2.436       .  S
Cd167       O172   2.445       .  S
Cd167       O168   2.492       .  S
Cd167       O171   2.445       .  S
Cd167       O169   2.485       .  S
C170        O174   1.261       .  A
C170        C775   1.483       .  S
C175        C176   1.361   1_556  D
C175        C402   1.491       .  S
C175        C452   1.488   1_656  S
C176        C392   1.490       .  S
C176        C425   1.486   1_554  S
C177        C178   1.357       .  D
C177        C502   1.486       .  S
C177        C662   1.486       .  S
C178        C435   1.485       .  S
C178        C832   1.488       .  S
C179        C180   1.356       .  D
C179        C462   1.482       .  S
C179        C875   1.489       .  S
C180        C485   1.481       .  S
C180        C725   1.488       .  S
O181        C184   1.263       .  A
O181       Cd186   2.462       .  S
C182        O191   1.262       .  A
C182        O187   1.266       .  A
C182        C375   1.476       .  S
O183        C189   1.269       .  A
O183       Cd186   2.505       .  S
C184        O192   1.264       .  A
C184        C585   1.486       .  S
C185        O190   1.266       .  A
C185        O188   1.263       .  A
C185        C902   1.489   1_556  S
Cd186       O193   2.409       .  S
Cd186       O192   2.489       .  S
Cd186       O191   2.444       .  S
Cd186       O187   2.487       .  S
Cd186       O190   2.495       .  S
Cd186       O188   2.458       .  S
C189        O193   1.264       .  A
C189        C385   1.480       .  S
C194        C195   1.357       .  D
C194        C382   1.484       .  S
C194        C605   1.486       .  S
C195        C362   1.487       .  S
C195        C445   1.488       .  S
O196        C199   1.268       .  A
O196       Cd201   2.483       .  S
C197        O206   1.260       .  A
C197        O202   1.267       .  A
C197        C345   1.486       .  S
O198        C204   1.263       .  A
O198       Cd201   2.475       .  S
C199        O207   1.266       .  A
C199        C522   1.485       .  S
C200        O205   1.265       .  A
C200        O203   1.266       .  A
C200        C352   1.475       .  S
Cd201       O208   2.470       .  S
Cd201       O207   2.452       .  S
Cd201       O206   2.427       .  S
Cd201       O202   2.514       .  S
Cd201       O205   2.472       .  S
Cd201       O203   2.451       .  S
C204        O208   1.263       .  A
C204        C705   1.481   1_554  S
C209        C210   1.357   1_554  D
C209        C372   1.484   1_554  S
C209        C955   1.486       .  S
C210        C342   1.486   1_556  S
C210        C785   1.486       .  S
O211        C214   1.267       .  A
O211       Cd216   2.487       .  S
C212        O221   1.263       .  A
C212        O217   1.265       .  A
C212        C332   1.485       .  S
O213        C219   1.266   1_455  A
O213       Cd216   2.480   1_455  S
C214        O222   1.264       .  A
C214        C405   1.488       .  S
C215        O220   1.265       .  A
C215        O218   1.266       .  A
C215        C365   1.481       .  S
Cd216       O223   2.465       .  S
Cd216       O222   2.453       .  S
Cd216       O221   2.479       .  S
Cd216       O217   2.455       .  S
Cd216       O220   2.469   1_655  S
Cd216       O218   2.452   1_655  S
C219        O223   1.263       .  A
C219        C695   1.487       .  S
C224        C225   1.358       .  D
C224        C335   1.485       .  S
C224        C862   1.488       .  S
C225        C322   1.485       .  S
C225        C732   1.488       .  S
O226        C229   1.265       .  A
O226       Cd231   2.475       .  S
C227        O236   1.266       .  A
C227        O232   1.269       .  A
C227        C325   1.480   1_565  S
O228        C234   1.267       .  A
O228       Cd231   2.482       .  S
C229        O237   1.264       .  A
C229        C515   1.489       .  S
C230        O235   1.264       .  A
C230        O233   1.263       .  A
C230        C715   1.484       .  S
Cd231       O238   2.439       .  S
Cd231       O237   2.483       .  S
Cd231       O236   2.417       .  S
Cd231       O232   2.499       .  S
Cd231       O235   2.496       .  S
Cd231       O233   2.454       .  S
C234        O238   1.262       .  A
C234        C312   1.474       .  S
O239        C242   1.268       .  A
O239       Cd244   2.487   1_565  S
C240        O249   1.264       .  A
C240        O245   1.265       .  A
C240        C575   1.487       .  S
O241        C247   1.268       .  A
O241       Cd244   2.493       .  S
C242        O250   1.264       .  A
C242        C302   1.478       .  S
C243        O248   1.265       .  A
C243        O246   1.264       .  A
C243        C895   1.487       .  S
Cd244       O251   2.411       .  S
Cd244       O250   2.425   1_545  S
Cd244       O249   2.455       .  S
Cd244       O245   2.491       .  S
Cd244       O248   2.475       .  S
Cd244       O246   2.463       .  S
C247        O251   1.265       .  A
C247        C292   1.477       .  S
O252        C255   1.263   1_455  A
O252       Cd257   2.481   1_455  S
C253        O262   1.264       .  A
C253        O258   1.267       .  A
C253        C282   1.475       .  S
O254        C260   1.269       .  A
O254       Cd257   2.502       .  S
C255        O263   1.264       .  A
C255        C395   1.487       .  S
C256        O261   1.266       .  A
C256        O259   1.262   1_655  A
C256        C682   1.487       .  S
Cd257       O264   2.414       .  S
Cd257       O263   2.476       .  S
Cd257       O262   2.442   1_655  S
Cd257       O258   2.477   1_655  S
Cd257       O261   2.510       .  S
Cd257       O259   2.448   1_655  S
C260        O264   1.264       .  A
C260        C272   1.478       .  S
C265        C266   1.357       .  D
C265        C355   1.487       .  S
C265        C545   1.487       .  S
C266        C275   1.484       .  S
C266        C415   1.487       .  S
C267        C268   1.356       .  D
C267        C285   1.482       .  S
C267        C825   1.486       .  S
C268        C305   1.484       .  S
C268        C655   1.486       .  S
C269        C270   1.355   1_545  D
C269        C295   1.481       .  S
C269        C495   1.488       .  S
C270        C315   1.481       .  S
C270        C475   1.486   1_565  S
C271        C272   1.407       .  A
C271        C276   1.392       .  A
C271        F278   1.358       .  S
C272        C273   1.408       .  A
C273        C274   1.403       .  A
C273        F280   1.357       .  S
C274        C275   1.406       .  A
C274        F279   1.357       .  S
C275        C276   1.402       .  A
C276        F277   1.357       .  S
C281        C282   1.405       .  A
C281        C286   1.398       .  A
C281        F288   1.358       .  S
C282        C283   1.408       .  A
C283        C284   1.398       .  A
C283        F290   1.358       .  S
C284        C285   1.403       .  A
C284        F289   1.357       .  S
C285        C286   1.404       .  A
C286        F287   1.357       .  S
C291        C292   1.409       .  A
C291        C296   1.404       .  A
C291        F298   1.357       .  S
C292        C293   1.407   1_545  A
C293        C294   1.390       .  A
C293        F300   1.358       .  S
C294        C295   1.402   1_565  A
C294        F299   1.357       .  S
C295        C296   1.405       .  A
C296        F297   1.357       .  S
C301        C302   1.408       .  A
C301        C306   1.394       .  A
C301        F308   1.358       .  S
C302        C303   1.407       .  A
C303        C304   1.400       .  A
C303        F310   1.357       .  S
C304        C305   1.405       .  A
C304        F309   1.356       .  S
C305        C306   1.402       .  A
C306        F307   1.357       .  S
C311        C312   1.410       .  A
C311        C316   1.399   1_565  A
C311        F318   1.358   1_565  S
C312        C313   1.404       .  A
C313        C314   1.395       .  A
C313        F320   1.358       .  S
C314        C315   1.405       .  A
C314        F319   1.357       .  S
C315        C316   1.402   1_565  A
C316        F317   1.358       .  S
C321        C322   1.403       .  A
C321        C326   1.392       .  A
C321        F328   1.357       .  S
C322        C323   1.405       .  A
C323        C324   1.405       .  A
C323        F330   1.357       .  S
C324        C325   1.409       .  A
C324        F329   1.357       .  S
C325        C326   1.406       .  A
C326        F327   1.358       .  S
C331        C332   1.413       .  A
C331        C336   1.403       .  A
C331        F338   1.358       .  S
C332        C333   1.408       .  A
C333        C334   1.393       .  A
C333        F340   1.358       .  S
C334        C335   1.402       .  A
C334        F339   1.357       .  S
C335        C336   1.403       .  A
C336        F337   1.358       .  S
C341        C342   1.401       .  A
C341        C346   1.394       .  A
C341        F348   1.358       .  S
C342        C343   1.405       .  A
C343        C344   1.403       .  A
C343        F350   1.357       .  S
C344        C345   1.410       .  A
C344        F349   1.357       .  S
C345        C346   1.411       .  A
C346        F347   1.358       .  S
C351        C352   1.408       .  A
C351        C356   1.401       .  A
C351        F358   1.358       .  S
C352        C353   1.403       .  A
C353        C354   1.394       .  A
C353        F360   1.358       .  S
C354        C355   1.406       .  A
C354        F359   1.357       .  S
C355        C356   1.406       .  A
C356        F357   1.357       .  S
C361        C362   1.405       .  A
C361        C366   1.400       .  A
C361        F368   1.356       .  S
C362        C363   1.405       .  A
C363        C364   1.396       .  A
C363        F370   1.358       .  S
C364        C365   1.407       .  A
C364        F369   1.358       .  S
C365        C366   1.410       .  A
C366        F367   1.358       .  S
C371        C372   1.405       .  A
C371        C376   1.397       .  A
C371        F378   1.357   1_556  S
C372        C373   1.403       .  A
C373        C374   1.399       .  A
C373        F380   1.357       .  S
C374        C375   1.409       .  A
C374        F379   1.358       .  S
C375        C376   1.405       .  A
C376        F377   1.358       .  S
C381        C382   1.401       .  A
C381        C386   1.392       .  A
C381        F388   1.357       .  S
C382        C383   1.406       .  A
C383        C384   1.403       .  A
C383        F390   1.357       .  S
C384        C385   1.409       .  A
C384        F389   1.357       .  S
C385        C386   1.408       .  A
C386        F387   1.358       .  S
C391        C392   1.404   1_455  A
C391        C396   1.402       .  A
C391        F398   1.357       .  S
C392        C393   1.405       .  A
C393        C394   1.397       .  A
C393        F400   1.356       .  S
C394        C395   1.409       .  A
C394        F399   1.358       .  S
C395        C396   1.411   1_655  A
C396        F397   1.358       .  S
C401        C402   1.404   1_455  A
C401        C406   1.399   1_455  A
C401        F408   1.354       .  S
C402        C403   1.405       .  A
C403        C404   1.400       .  A
C403        F410   1.358       .  S
C404        C405   1.409       .  A
C404        F409   1.358       .  S
C405        C406   1.411       .  A
C406        F407   1.358   1_655  S
C411        C412   1.409       .  A
C411        C416   1.404       .  A
C411        F418   1.357       .  S
C412        C413   1.407       .  A
C413        C414   1.395       .  A
C413        F420   1.358       .  S
C414        C415   1.404       .  A
C414        F419   1.358       .  S
C415        C416   1.405       .  A
C416        F417   1.357       .  S
C421        C422   1.406       .  A
C421        C426   1.403       .  A
C421        F428   1.357       .  S
C422        C423   1.405       .  A
C423        C424   1.394       .  A
C423        F430   1.358   1_655  S
C424        C425   1.404       .  A
C424        F429   1.356   1_655  S
C425        C426   1.406       .  A
C426        F427   1.356       .  S
C431        C432   1.412       .  A
C431        C436   1.395       .  A
C431        F438   1.358       .  S
C432        C433   1.410       .  A
C433        C434   1.403       .  A
C433        F440   1.357       .  S
C434        C435   1.405       .  A
C434        F439   1.357       .  S
C435        C436   1.401       .  A
C436        F437   1.358       .  S
C441        C442   1.412       .  A
C441        C446   1.401       .  A
C441        F448   1.358       .  S
C442        C443   1.410       .  A
C443        C444   1.396       .  A
C443        F450   1.358       .  S
C444        C445   1.403       .  A
C444        F449   1.358       .  S
C445        C446   1.404       .  A
C446        F447   1.357       .  S
C451        C452   1.405   1_655  A
C451        C456   1.400       .  A
C451        F458   1.356       .  S
C452        C453   1.406       .  A
C453        C454   1.397       .  A
C453        F460   1.356   1_554  S
C454        C455   1.405       .  A
C454        F459   1.358       .  S
C455        C456   1.410   1_455  A
C456        F457   1.358       .  S
C461        C462   1.401       .  A
C461        C466   1.392       .  A
C461        F468   1.358       .  S
C462        C463   1.404       .  A
C463        C464   1.403       .  A
C463        F470   1.357       .  S
C464        C465   1.411       .  A
C464        F469   1.357       .  S
C465        C466   1.410       .  A
C466        F467   1.358       .  S
C471        C472   1.412   1_565  A
C471        C476   1.401       .  A
C471        F478   1.357       .  S
C472        C473   1.409       .  A
C473        C474   1.396       .  A
C473        F480   1.358       .  S
C474        C475   1.404       .  A
C474        F479   1.357       .  S
C475        C476   1.403   1_545  A
C476        F477   1.357       .  S
C481        C482   1.403       .  A
C481        C486   1.394       .  A
C481        F488   1.358       .  S
C482        C483   1.409       .  A
C483        C484   1.400       .  A
C483        F490   1.358       .  S
C484        C485   1.403       .  A
C484        F489   1.358       .  S
C485        C486   1.404       .  A
C486        F487   1.357       .  S
C491        C492   1.411   1_565  A
C491        C496   1.401       .  A
C491        F498   1.357       .  S
C492        C493   1.409       .  A
C493        C494   1.396       .  A
C493        F500   1.358       .  S
C494        C495   1.403       .  A
C494        F499   1.357       .  S
C495        C496   1.405   1_545  A
C496        F497   1.357       .  S
C501        C502   1.405       .  A
C501        C506   1.395       .  A
C501        F508   1.357       .  S
C502        C503   1.405       .  A
C503        C504   1.402       .  A
C503        F510   1.357       .  S
C504        C505   1.409       .  A
C504        F509   1.358       .  S
C505        C506   1.404       .  A
C506        F507   1.358       .  S
C511        C512   1.404       .  A
C511        C516   1.402       .  A
C511        F518   1.357       .  S
C512        C513   1.405       .  A
C513        C514   1.398       .  A
C513        F520   1.355       .  S
C514        C515   1.409       .  A
C514        F519   1.358       .  S
C515        C516   1.412       .  A
C516        F517   1.358       .  S
C521        C522   1.409       .  A
C521        C526   1.402       .  A
C521        F528   1.358       .  S
C522        C523   1.409       .  A
C523        C524   1.398       .  A
C523        F530   1.358       .  S
C524        C525   1.403       .  A
C524        F529   1.357       .  S
C525        C526   1.405       .  A
C526        F527   1.357       .  S
C531        C532   1.406       .  A
C531        C536   1.401       .  A
C531        F538   1.356       .  S
C532        C533   1.403       .  A
C533        C534   1.396       .  A
C533        F540   1.357       .  S
C534        C535   1.406       .  A
C534        F539   1.358       .  S
C535        C536   1.404       .  A
C536        F537   1.357       .  S
C541        C542   1.409       .  A
C541        C546   1.396       .  A
C541        F548   1.358       .  S
C542        C543   1.411       .  A
C543        C544   1.402       .  A
C543        F550   1.357       .  S
C544        C545   1.404       .  A
C544        F549   1.357       .  S
C545        C546   1.403       .  A
C546        F547   1.358       .  S
C551        C552   1.410       .  A
C551        C556   1.404       .  A
C551        F558   1.357       .  S
C552        C553   1.407       .  A
C553        C554   1.391       .  A
C553        F560   1.358       .  S
C554        C555   1.403       .  A
C554        F559   1.357       .  S
C555        C556   1.404       .  A
C556        F557   1.357       .  S
C561        C562   1.406       .  A
C561        C566   1.401       .  A
C561        F568   1.357       .  S
C562        C563   1.408       .  A
C563        C564   1.396       .  A
C563        F570   1.358       .  S
C564        C565   1.402       .  A
C564        F569   1.357       .  S
C565        C566   1.406       .  A
C566        F567   1.356       .  S
C571        C572   1.404       .  A
C571        C576   1.404       .  A
C571        F578   1.357       .  S
C572        C573   1.403       .  A
C573        C574   1.395       .  A
C573        F580   1.357       .  S
C574        C575   1.409       .  A
C574        F579   1.358       .  S
C575        C576   1.412       .  A
C576        F577   1.358       .  S
C581        C582   1.404       .  A
C581        C586   1.402       .  A
C581        F588   1.357       .  S
C582        C583   1.403       .  A
C583        C584   1.396       .  A
C583        F590   1.358       .  S
C584        C585   1.410       .  A
C584        F589   1.358       .  S
C585        C586   1.411       .  A
C586        F587   1.357       .  S
C591        C592   1.401       .  A
C591        C596   1.395       .  A
C591        F598   1.357       .  S
C592        C593   1.404       .  A
C593        C594   1.402       .  A
C593        F600   1.357       .  S
C594        C595   1.411       .  A
C594        F599   1.357       .  S
C595        C596   1.411       .  A
C596        F597   1.358       .  S
C601        C602   1.407       .  A
C601        C606   1.394       .  A
C601        F608   1.358       .  S
C602        C603   1.409       .  A
C603        C604   1.403       .  A
C603        F610   1.357       .  S
C604        C605   1.405       .  A
C604        F609   1.357       .  S
C605        C606   1.403       .  A
C606        F607   1.357       .  S
C611        C612   1.408       .  A
C611        C616   1.393       .  A
C611        F618   1.358       .  S
C612        C613   1.412       .  A
C613        C614   1.402       .  A
C613        F620   1.358       .  S
C614        C615   1.404       .  A
C614        F619   1.357       .  S
C615        C616   1.403       .  A
C616        F617   1.357       .  S
C621        C622   1.405       .  A
C621        C626   1.400       .  A
C621        F628   1.356       .  S
C622        C623   1.404       .  A
C623        C624   1.396       .  A
C623        F630   1.357       .  S
C624        C625   1.408       .  A
C624        F629   1.358       .  S
C625        C626   1.410       .  A
C626        F627   1.358       .  S
C631        C632   1.411   1_565  A
C631        C636   1.401       .  A
C631        F638   1.358       .  S
C632        C633   1.408       .  A
C633        C634   1.399       .  A
C633        F640   1.358       .  S
C634        C635   1.405       .  A
C634        F639   1.356       .  S
C635        C636   1.404   1_545  A
C636        F637   1.357       .  S
C641        C642   1.408       .  A
C641        C646   1.399       .  A
C641        F648   1.358       .  S
C642        C643   1.408   1_545  A
C643        C644   1.402       .  A
C643        F650   1.357       .  S
C644        C645   1.408   1_565  A
C644        F649   1.353       .  S
C645        C646   1.409       .  A
C646        F647   1.357       .  S
C651        C652   1.411       .  A
C651        C656   1.403       .  A
C651        F658   1.358       .  S
C652        C653   1.408       .  A
C653        C654   1.395       .  A
C653        F660   1.358       .  S
C654        C655   1.403       .  A
C654        F659   1.357       .  S
C655        C656   1.404       .  A
C656        F657   1.357       .  S
C661        C662   1.403       .  A
C661        C666   1.401       .  A
C661        F668   1.357       .  S
C662        C663   1.403       .  A
C663        C664   1.397       .  A
C663        F670   1.358       .  S
C664        C665   1.409       .  A
C664        F669   1.358       .  S
C665        C666   1.412       .  A
C666        F667   1.358       .  S
C671        C672   1.402       .  A
C671        C676   1.394       .  A
C671        F678   1.358       .  S
C672        C673   1.409   1_565  A
C673        C674   1.401       .  A
C673        F680   1.358       .  S
C674        C675   1.404   1_545  A
C674        F679   1.357       .  S
C675        C676   1.407       .  A
C676        F677   1.356       .  S
C681        C682   1.411       .  A
C681        C686   1.405       .  A
C681        F688   1.357       .  S
C682        C683   1.409   1_655  A
C683        C684   1.395       .  A
C683        F690   1.358       .  S
C684        C685   1.403   1_455  A
C684        F689   1.357       .  S
C685        C686   1.406       .  A
C686        F687   1.357       .  S
C691        C692   1.404   1_455  A
C691        C696   1.397       .  A
C691        F698   1.358       .  S
C692        C693   1.403       .  A
C693        C694   1.401       .  A
C693        F700   1.357       .  S
C694        C695   1.413       .  A
C694        F699   1.358       .  S
C695        C696   1.409   1_655  A
C696        F697   1.358       .  S
C701        C702   1.403       .  A
C701        C706   1.397       .  A
C701        F708   1.358       .  S
C702        C703   1.404       .  A
C703        C704   1.400       .  A
C703        F710   1.357       .  S
C704        C705   1.410       .  A
C704        F709   1.358       .  S
C705        C706   1.408       .  A
C706        F707   1.358       .  S
C711        C712   1.404       .  A
C711        C716   1.394       .  A
C711        F718   1.357       .  S
C712        C713   1.405       .  A
C713        C714   1.404       .  A
C713        F720   1.357       .  S
C714        C715   1.411       .  A
C714        F719   1.358       .  S
C715        C716   1.407       .  A
C716        F717   1.358       .  S
C721        C722   1.412       .  A
C721        C726   1.402       .  A
C721        F728   1.357       .  S
C722        C723   1.409       .  A
C723        C724   1.397       .  A
C723        F730   1.358       .  S
C724        C725   1.404       .  A
C724        F729   1.357       .  S
C725        C726   1.404       .  A
C726        F727   1.357       .  S
C731        C732   1.405       .  A
C731        C736   1.401       .  A
C731        F738   1.357       .  S
C732        C733   1.403       .  A
C733        C734   1.396       .  A
C733        F740   1.358       .  S
C734        C735   1.409       .  A
C734        F739   1.358       .  S
C735        C736   1.410       .  A
C736        F737   1.358       .  S
C741        C742   1.408       .  A
C741        C746   1.394       .  A
C741        F748   1.358       .  S
C742        C743   1.408       .  A
C743        C744   1.401       .  A
C743        F750   1.357       .  S
C744        C745   1.405       .  A
C744        F749   1.357       .  S
C745        C746   1.402       .  A
C746        F747   1.357       .  S
C751        C752   1.407   1_565  A
C751        C756   1.392       .  A
C751        F758   1.358       .  S
C752        C753   1.408       .  A
C753        C754   1.402       .  A
C753        F760   1.357       .  S
C754        C755   1.406       .  A
C754        F759   1.357       .  S
C755        C756   1.402   1_545  A
C756        F757   1.358       .  S
C761        C762   1.404       .  A
C761        C766   1.405       .  A
C761        F768   1.357       .  S
C762        C763   1.403       .  A
C763        C764   1.394       .  A
C763        F770   1.357       .  S
C764        C765   1.408       .  A
C764        F769   1.358       .  S
C765        C766   1.412       .  A
C766        F767   1.357       .  S
C771        C772   1.403       .  A
C771        C776   1.401       .  A
C771        F778   1.357       .  S
C772        C773   1.403       .  A
C773        C774   1.396       .  A
C773        F780   1.358       .  S
C774        C775   1.408       .  A
C774        F779   1.358       .  S
C775        C776   1.411       .  A
C776        F777   1.358       .  S
C781        C782   1.408       .  A
C781        C786   1.404       .  A
C781        F788   1.357       .  S
C782        C783   1.407       .  A
C783        C784   1.394       .  A
C783        F790   1.358       .  S
C784        C785   1.403       .  A
C784        F789   1.357       .  S
C785        C786   1.405       .  A
C786        F787   1.357       .  S
C791        C792   1.411       .  A
C791        C796   1.401       .  A
C791        F798   1.357       .  S
C792        C793   1.409       .  A
C793        C794   1.395       .  A
C793        F800   1.358       .  S
C794        C795   1.403       .  A
C794        F799   1.357       .  S
C795        C796   1.404       .  A
C796        F797   1.357       .  S
C801        C802   1.409       .  A
C801        C806   1.401       .  A
C801        F808   1.357       .  S
C802        C803   1.410       .  A
C803        C804   1.394       .  A
C803        F810   1.358       .  S
C804        C805   1.402       .  A
C804        F809   1.357       .  S
C805        C806   1.405       .  A
C806        F807   1.357       .  S
C811        C812   1.405       .  A
C811        C816   1.400       .  A
C811        F818   1.358       .  S
C812        C813   1.402       .  A
C813        C814   1.394       .  A
C813        F820   1.358       .  S
C814        C815   1.408       .  A
C814        F819   1.357       .  S
C815        C816   1.408       .  A
C816        F817   1.355       .  S
C821        C822   1.411       .  A
C821        C826   1.403       .  A
C821        F828   1.358       .  S
C822        C823   1.408       .  A
C823        C824   1.395       .  A
C823        F830   1.358       .  S
C824        C825   1.404       .  A
C824        F829   1.357       .  S
C825        C826   1.403       .  A
C826        F827   1.357       .  S
C831        C832   1.404       .  A
C831        C836   1.396       .  A
C831        F838   1.357       .  S
C832        C833   1.406       .  A
C833        C834   1.404       .  A
C833        F840   1.357       .  S
C834        C835   1.409       .  A
C834        F839   1.357       .  S
C835        C836   1.407       .  A
C836        F837   1.358       .  S
C841        C842   1.404       .  A
C841        C846   1.395       .  A
C841        F848   1.358       .  S
C842        C843   1.408       .  A
C843        C844   1.401       .  A
C843        F850   1.358       .  S
C844        C845   1.407       .  A
C844        F849   1.356       .  S
C845        C846   1.407       .  A
C846        F847   1.357       .  S
C851        C852   1.410       .  A
C851        C856   1.401       .  A
C851        F858   1.357       .  S
C852        C853   1.411   1_455  A
C853        C854   1.394       .  A
C853        F860   1.358       .  S
C854        C855   1.401       .  A
C854        F859   1.358       .  S
C855        C856   1.405   1_655  A
C856        F857   1.357       .  S
C861        C862   1.404       .  A
C861        C866   1.401       .  A
C861        F868   1.357       .  S
C862        C863   1.405       .  A
C863        C864   1.398       .  A
C863        F870   1.357       .  S
C864        C865   1.409       .  A
C864        F869   1.358       .  S
C865        C866   1.412       .  A
C866        F867   1.357       .  S
C871        C872   1.411       .  A
C871        C876   1.401       .  A
C871        F878   1.357       .  S
C872        C873   1.410       .  A
C873        C874   1.396       .  A
C873        F880   1.358       .  S
C874        C875   1.404       .  A
C874        F879   1.357       .  S
C875        C876   1.405       .  A
C876        F877   1.356       .  S
C881        C882   1.404       .  A
C881        C886   1.395       .  A
C881        F888   1.358       .  S
C882        C883   1.410       .  A
C883        C884   1.401       .  A
C883        F890   1.358   1_655  S
C884        C885   1.405       .  A
C884        F889   1.357   1_655  S
C885        C886   1.405       .  A
C886        F887   1.357       .  S
C891        C892   1.403       .  A
C891        C896   1.398       .  A
C891        F898   1.356       .  S
C892        C893   1.404       .  A
C893        C894   1.400       .  A
C893        F900   1.356       .  S
C894        C895   1.410       .  A
C894        F899   1.358       .  S
C895        C896   1.410       .  A
C896        F897   1.358       .  S
C901        C902   1.410       .  A
C901        C906   1.401       .  A
C901        F908   1.358       .  S
C902        C903   1.411       .  A
C903        C904   1.399       .  A
C903        F910   1.358       .  S
C904        C905   1.403       .  A
C904        F909   1.355       .  S
C905        C906   1.405       .  A
C906        F907   1.357       .  S
C911        C912   1.405       .  A
C911        C916   1.402       .  A
C911        F918   1.357       .  S
C912        C913   1.403       .  A
C913        C914   1.392       .  A
C913        F920   1.356       .  S
C914        C915   1.406       .  A
C914        F919   1.358       .  S
C915        C916   1.406       .  A
C916        F917   1.357       .  S
C921        C922   1.409       .  A
C921        C926   1.394       .  A
C921        F928   1.358       .  S
C922        C923   1.411       .  A
C923        C924   1.405       .  A
C923        F930   1.357       .  S
C924        C925   1.405       .  A
C924        F929   1.357       .  S
C925        C926   1.403       .  A
C926        F927   1.357       .  S
C931        C932   1.403       .  A
C931        C936   1.401       .  A
C931        F938   1.357       .  S
C932        C933   1.404       .  A
C933        C934   1.396       .  A
C933        F940   1.358       .  S
C934        C935   1.409       .  A
C934        F939   1.358       .  S
C935        C936   1.412       .  A
C936        F937   1.358       .  S
C941        C942   1.401       .  A
C941        C946   1.393       .  A
C941        F948   1.358       .  S
C942        C943   1.404       .  A
C943        C944   1.401       .  A
C943        F950   1.357       .  S
C944        C945   1.410       .  A
C944        F949   1.357       .  S
C945        C946   1.411       .  A
C946        F947   1.358       .  S
C951        C952   1.408       .  A
C951        C956   1.395       .  A
C951        F958   1.358       .  S
C952        C953   1.412       .  A
C953        C954   1.401       .  A
C953        F960   1.358       .  S
C954        C955   1.403       .  A
C954        F959   1.357       .  S
C955        C956   1.404       .  A
C956        F957   1.357       .  S
C961        C962   1.409       .  A
C961        C966   1.397       .  A
C961        F968   1.358       .  S
C962        C963   1.412       .  A
C963        C964   1.401       .  A
C963        F970   1.358       .  S
C964        C965   1.404       .  A
C964        F969   1.357       .  S
C965        C966   1.404       .  A
C966        F967   1.358       .  S
C971        C972   1.404       .  A
C971        C976   1.395       .  A
C971        F978   1.358       .  S
C972        C973   1.404       .  A
C973        C974   1.400       .  A
C973        F980   1.357       .  S
C974        C975   1.412       .  A
C974        F979   1.358       .  S
C975        C976   1.407       .  A
C976        F977   1.358       .  S
C981        C982   1.412       .  A
C981        C986   1.399       .  A
C981        F988   1.358       .  S
C982        C983   1.408       .  A
C983        C984   1.395       .  A
C983        F990   1.358       .  S
C984        C985   1.402       .  A
C984        F989   1.356       .  S
C985        C986   1.402       .  A
C986        F987   1.357       .  S
