geometry optimzed in LAMMPS
_audit_creation_date              2020-11-30 
_audit_creation_method            'lammps2cif' 
_symmetry_space_group_name_H-M    'P1' 
_symmetry_Int_Tables_number       1 
_symmetry_cell_setting            triclinic 
loop_ 
_symmetry_equiv_pos_as_xyz 
  x,y,z 
_cell_length_a                    57.63715394 
_cell_length_b                    57.88446926762548 
_cell_length_c                    38.78656408885358 
_cell_angle_alpha                 88.78635630864365 
_cell_angle_beta                  91.42416028472098 
_cell_angle_gamma                 122.22782260078351 
loop_ 
_atom_site_label 
_atom_site_type_symbol 
_atom_site_fract_x 
_atom_site_fract_y 
_atom_site_fract_z 
_atom_site_charge 
O1          O  0.00663136  0.27205102  0.59062963    -0.55700
C2          C  0.97453068  0.27320465  0.68465623     0.77000
O3          O  0.94582504  0.20688850  0.66841742    -0.56800
C4          C  0.98855638  0.25445685  0.57034709     0.76900
C5          C  0.04041317  0.24544837  0.65731343     0.79300
Cd6        Cd  0.98900707  0.24239053  0.64243370     1.37500
O7          O  0.97288407  0.27373308  0.65213718    -0.55700
O8          O  0.03990340  0.26498123  0.64296271    -0.54500
C9          C  0.94146116  0.18757290  0.64913170     0.79300
O10         O  0.01740121  0.22529673  0.66634920    -0.56800
O11         O  0.98529245  0.26072616  0.69752187    -0.55300
O12         O  0.97058781  0.23206664  0.58391888    -0.55300
O13         O  0.95989129  0.19331111  0.62741525    -0.54500
O14         O  0.27725641  0.24093376  0.60262506    -0.55700
C15         C  0.29367480  0.24776437  0.70458204     0.77000
O16         O  0.20179231  0.20404182  0.66320001    -0.56800
C17         C  0.25810460  0.22561627  0.58171491     0.76900
C18         C  0.24529697  0.16686747  0.66400490     0.79300
Cd19       Cd  0.24991698  0.21868156  0.65513226     1.37500
O20         O  0.29529248  0.25692160  0.67421318    -0.55700
O21         O  0.26398765  0.18644231  0.64673257    -0.54500
C22         C  0.20557289  0.22764759  0.66432332     0.79300
O23         O  0.22771465  0.17081466  0.67692202    -0.56800
O24         O  0.27092033  0.22692499  0.71308601    -0.55300
O25         O  0.23539913  0.20826106  0.59499472    -0.55300
O26         O  0.23028894  0.24743769  0.66301914    -0.54500
O27         O  0.26811650  0.93668876  0.59853816    -0.55700
C28         C  0.31457281  0.97295194  0.69239706     0.77000
O29         O  0.24338666  0.98268818  0.63857017    -0.56800
C30         C  0.27592168  0.95768399  0.57984511     0.76900
C31         C  0.21646997  0.90499309  0.66743696     0.79300
Cd32       Cd  0.26544566  0.95707645  0.65241651     1.37500
O33         O  0.31547870  0.98005958  0.66120995    -0.55700
O34         O  0.23795506  0.90696077  0.65648245    -0.54500
C35         C  0.25291750  0.99810101  0.66456817     0.79300
O36         O  0.21818417  0.92723742  0.67341614    -0.56800
O37         O  0.29101709  0.95683762  0.70458885    -0.55300
O38         O  0.27911831  0.97835656  0.59496747    -0.55300
O39         O  0.26769530  0.99395815  0.68522770    -0.54500
O40         O  0.95380866  0.62896887  0.65887985    -0.55700
C41         C  0.97902984  0.66325931  0.57682620     0.77000
O42         O  0.94994859  0.69509132  0.63509951    -0.56800
C43         C  0.96260950  0.62982348  0.68926262     0.76900
C44         C  0.03351276  0.72797178  0.65915914     0.79300
Cd45       Cd  0.98062553  0.67835246  0.64803539     1.37500
O46         O  0.99958534  0.66993267  0.59632308    -0.55700
O47         O  0.02969344  0.70483269  0.66689961    -0.54500
C48         C  0.94049103  0.69162741  0.66513336     0.79300
O49         O  0.01294769  0.72784977  0.64685229    -0.56800
O50         O  0.95929805  0.66308136  0.59062375    -0.55300
O51         O  0.98138284  0.65300425  0.70017343    -0.55300
O52         O  0.95036761  0.68291006  0.68757813    -0.54500
O53         O  0.68994495  0.66056373  0.60909154    -0.55700
C54         C  0.67777394  0.63330234  0.70740986     0.77000
O55         O  0.76290718  0.70766734  0.67649466    -0.56800
C56         C  0.71067987  0.67601103  0.59086124     0.76900
C57         C  0.70439974  0.72515370  0.67916771     0.79300
Cd58       Cd  0.71264278  0.68080155  0.66516458     1.37500
O59         O  0.67431300  0.63283600  0.67505613    -0.55700
O60         O  0.68849484  0.70574834  0.65928877    -0.54500
C61         C  0.76543609  0.68725143  0.67862848     0.79300
O62         O  0.72306086  0.72316981  0.69399121    -0.56800
O63         O  0.69556827  0.65608213  0.72035064    -0.55300
O64         O  0.73195475  0.69365924  0.60711126    -0.55300
O65         O  0.74353164  0.66415930  0.67517903    -0.54500
O66         O  0.68501757  0.93509296  0.59561474    -0.55700
C67         C  0.68310476  0.96720114  0.69048512     0.77000
O68         O  0.73241221  0.92371590  0.66298610    -0.56800
C69         C  0.70541684  0.94640541  0.57577243     0.76900
C70         C  0.76474630  0.00327289  0.65611615     0.79300
Cd71       Cd  0.71347205  0.95196203  0.64922668     1.37500
O72         O  0.67944660  0.96489778  0.65813503    -0.55700
O73         O  0.74413033  0.00059647  0.64003659    -0.54500
C74         C  0.70987267  0.90177214  0.66905973     0.79300
O75         O  0.76181789  0.98176901  0.66971783    -0.56800
O76         O  0.69861334  0.96003102  0.70378595    -0.55300
O77         O  0.72874797  0.95904017  0.59030727    -0.55300
O78         O  0.68873325  0.90326980  0.66752586    -0.54500
O79         O  0.29588825  0.95917263  0.30157695    -0.55700
C80         C  0.30253540  0.94111339  0.21030578     0.77000
O81         O  0.22292616  0.91907583  0.26387808    -0.56800
C82         C  0.27758461  0.95687087  0.32141109     0.76900
C83         C  0.27608189  0.00732900  0.22976595     0.79300
Cd84       Cd  0.26956293  0.95527971  0.24766124     1.37500
O85         O  0.29683017  0.93414136  0.24156489    -0.55700
O86         O  0.29485679  0.00584504  0.24515914    -0.54500
C87         C  0.21570536  0.90694143  0.23529690     0.79300
O88         O  0.25492874  0.98482358  0.22120816    -0.56800
O89         O  0.29515560  0.95653221  0.19743418    -0.55300
O90         O  0.25656862  0.95446453  0.30678437    -0.55300
O91         O  0.23316060  0.91768991  0.21162279    -0.54500
O92         O  0.99908441  0.63930905  0.23283491    -0.55700
C93         C  0.98636799  0.66561258  0.31936041     0.77000
O94         O  0.01429536  0.72230840  0.22915423    -0.56800
C95         C  0.99997081  0.64279897  0.20054337     0.76900
C96         C  0.93456809  0.66767085  0.23294623     0.79300
Cd97       Cd  0.98729431  0.67336252  0.24575164     1.37500
O98         O  0.98078289  0.64643873  0.29895572    -0.55700
O99         O  0.95649663  0.68655830  0.21950543    -0.54500
C100        C  0.03739721  0.72601339  0.23756260     0.79300
O101        O  0.93658607  0.65016900  0.25062662    -0.56800
O102        O  0.99228517  0.68804703  0.30541853    -0.55300
O103        O  0.99176330  0.65780145  0.18868347    -0.55300
O104        O  0.03698257  0.70556790  0.25041867    -0.54500
O105        O  0.67362532  0.65716310  0.24974780    -0.55700
C106        C  0.71328460  0.67635022  0.33105645     0.77000
O107        O  0.77259460  0.70589307  0.25039206    -0.56800
C108        C  0.67441334  0.65712050  0.21718580     0.76900
C109        C  0.73975523  0.74464720  0.24526643     0.79300
Cd110      Cd  0.72382521  0.68888092  0.25821842     1.37500
O111        O  0.72370588  0.66618846  0.31317169    -0.55700
O112        O  0.72597341  0.72601361  0.22354542    -0.54500
C113        C  0.76919328  0.68348271  0.24105787     0.79300
O114        O  0.74689898  0.73753629  0.27253013    -0.56800
O115        O  0.70644080  0.69105732  0.31480084    -0.55300
O116        O  0.69791515  0.67010675  0.20388582    -0.55300
O117        O  0.74456225  0.66359756  0.23883251    -0.54500
O118        O  0.28816459  0.26598936  0.24447070    -0.55700
C119        C  0.26648116  0.22045622  0.32410320     0.77000
O120        O  0.21288680  0.20781436  0.21855655    -0.56800
C121        C  0.28849562  0.26587403  0.21193428     0.76900
C122        C  0.26210711  0.17257474  0.23417437     0.79300
Cd123      Cd  0.25459988  0.21651209  0.25129061     1.37500
O124        O  0.27817142  0.24131984  0.30457742    -0.55700
O125        O  0.28232355  0.19679316  0.23792810    -0.54500
C126        C  0.20104646  0.20968690  0.24439655     0.79300
O127        O  0.23861709  0.16915397  0.23658936    -0.56800
O128        O  0.25013504  0.19795581  0.30953336    -0.55300
O129        O  0.27441827  0.24281367  0.19753737    -0.55300
O130        O  0.21346234  0.21367327  0.27299876    -0.54500
O131        O  0.98172151  0.25639599  0.29160782    -0.55700
C132        C  0.01438813  0.28606197  0.19680226     0.77000
O133        O  0.01388888  0.21068652  0.25003059    -0.56800
C134        C  0.99486997  0.25123146  0.31379006     0.76900
C135        C  0.94084993  0.19310272  0.22296111     0.79300
Cd136      Cd  0.99438182  0.23948877  0.24184686     1.37500
O137        O  0.01520741  0.28853019  0.22915762    -0.55700
O138        O  0.94355308  0.21339897  0.23855219    -0.54500
C139        C  0.03729656  0.22841879  0.23859454     0.79300
O140        O  0.96286795  0.19511841  0.21440069    -0.56800
O141        O  0.00237316  0.26202082  0.18522200    -0.55300
O142        O  0.00737190  0.24053880  0.30253267    -0.55300
O143        O  0.04028740  0.25068352  0.22817463    -0.54500
O144        O  0.71949404  0.97521065  0.30155417    -0.55700
C145        C  0.67322926  0.93709288  0.20187727     0.77000
O146        O  0.76960044  0.98868019  0.24467874    -0.56800
C147        C  0.70533626  0.95269539  0.31755967     0.76900
C148        C  0.73431104  0.91389652  0.24224769     0.79300
Cd149      Cd  0.72028462  0.95464041  0.24661769     1.37500
O150        O  0.67295240  0.94222908  0.23328484    -0.55700
O151        O  0.72888208  0.92051728  0.27034249    -0.54500
C152        C  0.76776671  0.00829622  0.23336430     0.79300
O153        O  0.73436991  0.92699030  0.21567262    -0.56800
O154        O  0.69553371  0.94123456  0.19064867    -0.55300
O155        O  0.69725776  0.93140542  0.30014623    -0.55300
O156        O  0.74369566  0.00306245  0.22788710    -0.54500
O157        O  0.57388732  0.91448848  0.16899633    -0.55700
C158        C  0.64853404  0.92549788  0.18005846     0.77000
O159        O  0.58578953  0.85186637  0.11664775    -0.56800
C160        C  0.55069881  0.89783476  0.15555506     0.76900
C161        C  0.61340368  0.92128091  0.07074790     0.79300
Cd162      Cd  0.59908072  0.89703765  0.13891304     1.37500
O163        O  0.62538282  0.91776965  0.19246304    -0.55700
O164        O  0.60980527  0.93325360  0.09508198    -0.54500
C165        C  0.58684343  0.84161168  0.14529158     0.79300
O166        O  0.61085922  0.89872542  0.07845938    -0.56800
O167        O  0.64910618  0.92152318  0.14826547    -0.55300
O168        O  0.54997214  0.88060262  0.13532051    -0.55300
O169        O  0.59204021  0.85649536  0.17134037    -0.54500
O170        O  0.37918648  0.92507220  0.16339379    -0.55700
C171        C  0.31480582  0.92997871  0.18891221     0.77000
O172        O  0.33678101  0.89788741  0.08203138    -0.56800
C173        C  0.38026529  0.90380098  0.16396329     0.76900
C174        C  0.27850064  0.84895789  0.14481788     0.79300
Cd175      Cd  0.33027638  0.90145414  0.14424703     1.37500
O176        O  0.32244374  0.91462120  0.20125818    -0.55700
O177        O  0.29729265  0.85507357  0.16705904    -0.54500
C178        C  0.34397878  0.92218555  0.07438088     0.79300
O179        O  0.28385578  0.86690361  0.12184669    -0.56800
O180        O  0.31628800  0.93362194  0.15665093    -0.55300
O181        O  0.35812630  0.88172084  0.15672674    -0.55300
O182        O  0.34467979  0.93655013  0.09900298    -0.54500
O183        O  0.03037092  0.57369336  0.16493435    -0.55700
C184        C  0.01234833  0.63214380  0.17837372     0.77000
O185        O  0.08950015  0.65402562  0.11596959    -0.56800
C186        C  0.04795182  0.57097059  0.14975982     0.76900
C187        C  0.01790669  0.60860590  0.06961740     0.79300
Cd188      Cd  0.04381554  0.61828012  0.13671026     1.37500
O189        O  0.02193261  0.61837696  0.19061205    -0.55700
O190        O  0.00612356  0.59241280  0.09471756    -0.54500
C191        C  0.09823754  0.66693729  0.14396716     0.79300
O192        O  0.04150151  0.62923943  0.07591366    -0.56800
O193        O  0.01594630  0.63814480  0.14661562    -0.55300
O194        O  0.06360449  0.59026824  0.12965820    -0.55300
O195        O  0.08212780  0.65690490  0.16915510    -0.54500
O196        O  0.03538776  0.37939007  0.13931659    -0.55700
C197        C  0.02820623  0.30982839  0.17382078     0.77000
O198        O  0.06088270  0.36870920  0.06750784    -0.56800
C199        C  0.05646709  0.40235667  0.14664913     0.76900
C200        C  0.11272948  0.36188109  0.13139268     0.79300
Cd201      Cd  0.05958081  0.35596697  0.12865573     1.37500
O202        O  0.03978286  0.33397657  0.18489064    -0.55700
O203        O  0.09698862  0.35249592  0.10527990    -0.54500
C204        C  0.03924027  0.34664134  0.05859384     0.79300
O205        O  0.10424197  0.36945865  0.15579288    -0.56800
O206        O  0.03037031  0.30713791  0.14209667    -0.55300
O207        O  0.07913062  0.40376874  0.14625104    -0.55300
O208        O  0.02697535  0.32907851  0.08224244    -0.54500
O209        O  0.31713873  0.31440031  0.20588547    -0.55700
C210        C  0.37594949  0.39158311  0.17260260     0.77000
O211        O  0.31671832  0.33519840  0.08980397    -0.56800
C212        C  0.30305286  0.29126842  0.19164605     0.76900
C213        C  0.28148384  0.35065592  0.15184647     0.79300
Cd214      Cd  0.32606319  0.34127190  0.15178912     1.37500
O215        O  0.35446220  0.39039111  0.16204424    -0.55700
O216        O  0.28716636  0.34127748  0.17830531    -0.54500
C217        C  0.33503091  0.33048554  0.08245483     0.79300
O218        O  0.29674716  0.35607779  0.12619302    -0.56800
O219        O  0.37436681  0.36894254  0.17504549    -0.55300
O220        O  0.30094785  0.29123192  0.15918112    -0.55300
O221        O  0.34965398  0.33072044  0.10754390    -0.54500
O222        O  0.57581452  0.57590601  0.16950926    -0.55700
C223        C  0.64940974  0.64422556  0.19563425     0.77000
O224        O  0.58622806  0.61287505  0.09134266    -0.56800
C225        C  0.55298903  0.57338518  0.17465827     0.76900
C226        C  0.59615162  0.67228910  0.15257078     0.79300
Cd227      Cd  0.60075878  0.62456084  0.15282305     1.37500
O228        O  0.62572411  0.63085395  0.20845096    -0.55700
O229        O  0.58845809  0.65563314  0.17765218    -0.54500
C230        C  0.60463838  0.60820289  0.08393194     0.79300
O231        O  0.60598638  0.66688806  0.12738891    -0.56800
O232        O  0.65053874  0.64725615  0.16325257    -0.55300
O233        O  0.55253383  0.59493739  0.17161745    -0.55300
O234        O  0.62123464  0.61157822  0.10816904    -0.54500
O235        O  0.93708675  0.55134034  0.81001506    -0.55700
C236        C  0.94987151  0.60543587  0.71145101     0.77000
O237        O  0.89416414  0.51049342  0.74101913    -0.56800
C238        C  0.93983032  0.57122412  0.82669392     0.76900
C239        C  0.86463160  0.55388238  0.75768903     0.79300
Cd240      Cd  0.91771860  0.55940892  0.75652825     1.37500
O241        O  0.95651849  0.60627357  0.74293474    -0.55700
O242        O  0.87206618  0.54336633  0.78091229    -0.54500
C243        C  0.91555814  0.51130080  0.73208528     0.79300
O244        O  0.88126858  0.56584980  0.73342780    -0.56800
O245        O  0.93012378  0.58286304  0.70043640    -0.55300
O246        O  0.93272122  0.58581187  0.81070884    -0.55300
O247        O  0.93761692  0.53450381  0.73341628    -0.54500
O248        O  0.94529057  0.34366816  0.72139188    -0.55700
C249        C  0.96251416  0.28443386  0.70653545     0.77000
O250        O  0.93212057  0.29650412  0.81307299    -0.56800
C251        C  0.92588517  0.34470741  0.73424252     0.76900
C252        C  0.87924768  0.24884130  0.74651797     0.79300
Cd253      Cd  0.93237168  0.29932761  0.74975951     1.37500
O254        O  0.95053999  0.29580593  0.69392767    -0.55700
O255        O  0.88786754  0.26591389  0.72183189    -0.54500
C256        C  0.95754584  0.31323257  0.81777195     0.79300
O257        O  0.89526829  0.25525172  0.77233205    -0.56800
O258        O  0.96193068  0.28147049  0.73890561    -0.55300
O259        O  0.90991168  0.32493589  0.75357818    -0.55300
O260        O  0.97139818  0.32413115  0.79080322    -0.54500
O261        O  0.41196080  0.99517626  0.73495947    -0.55700
C262        C  0.33945206  0.98470995  0.71404179     0.77000
O263        O  0.39554342  0.01942720  0.82196008    -0.56800
C264        C  0.43564918  0.01544714  0.74200356     0.76900
C265        C  0.38727575  0.06515787  0.75629979     0.79300
Cd266      Cd  0.38650635  0.01465412  0.75908776     1.37500
O267        O  0.36270378  0.00257895  0.70242178    -0.55700
O268        O  0.40109727  0.06068677  0.73567388    -0.54500
C269        C  0.37930203  0.99444449  0.82938589     0.79300
O270        O  0.37383912  0.04659375  0.77844969    -0.56800
O271        O  0.33840432  0.97899835  0.74582732    -0.55300
O272        O  0.43646650  0.03557238  0.75545904    -0.55300
O273        O  0.36638081  0.97890095  0.80422655    -0.54500
O274        O  0.60585086  0.98701269  0.74175912    -0.55700
C275        C  0.67173767  0.97946699  0.71153578     0.77000
O276        O  0.68782334  0.05609025  0.77359547    -0.56800
C277        C  0.60624220  0.00873796  0.73563123     0.76900
C278        C  0.64750508  0.98944427  0.82347759     0.79300
Cd279      Cd  0.65563063  0.00933073  0.75275914     1.37500
O280        O  0.65700341  0.98776422  0.69869933    -0.55700
O281        O  0.63311216  0.97422886  0.79875228    -0.54500
C282        C  0.70227721  0.06480092  0.74677855     0.79300
O283        O  0.66599032  0.01359362  0.81526004    -0.56800
O284        O  0.67774952  0.98381862  0.74325572    -0.55300
O285        O  0.62965835  0.03047678  0.73539784    -0.55300
O286        O  0.69500751  0.04785244  0.72254691    -0.54500
O287        O  0.59283225  0.53162535  0.75325764    -0.55700
C288        C  0.66356151  0.60843530  0.72886040     0.77000
O289        O  0.63784392  0.54975350  0.83411583    -0.56800
C290        C  0.59212590  0.50956733  0.74955370     0.76900
C291        C  0.69036534  0.55540622  0.77144375     0.79300
Cd292      Cd  0.64223945  0.55944604  0.77132153     1.37500
O293        O  0.64715038  0.58506643  0.71627089    -0.55700
O294        O  0.67228159  0.54536323  0.74768787    -0.54500
C295        C  0.62920062  0.56512491  0.84101736     0.79300
O296        O  0.68586858  0.56685076  0.79552030    -0.56800
O297        O  0.66859496  0.60916556  0.76077565    -0.55300
O298        O  0.61458628  0.51099270  0.75482615    -0.55300
O299        O  0.62556801  0.57692665  0.81551130    -0.54500
O300        O  0.34099271  0.27859688  0.71846909    -0.55700
C301        C  0.41745409  0.32608130  0.75212669     0.77000
O302        O  0.35108113  0.26452732  0.83011534    -0.56800
C303        C  0.31763304  0.25923117  0.72787167     0.76900
C304        C  0.37714683  0.23363008  0.76220581     0.79300
Cd305      Cd  0.36616484  0.27673122  0.76986572     1.37500
O306        O  0.39489857  0.32063175  0.73857893    -0.55700
O307        O  0.36945720  0.24228054  0.73696821    -0.54500
C308        C  0.35449340  0.28725156  0.83790921     0.79300
O309        O  0.38006038  0.24517810  0.79069064    -0.56800
O310        O  0.41614425  0.30841610  0.77309545    -0.55300
O311        O  0.31638054  0.24892026  0.75736305    -0.55300
O312        O  0.36230109  0.30474559  0.81375986    -0.54500
C313        C  0.51645318  0.45410869  0.74107804     0.14800
C314        C  0.51775827  0.43122833  0.73330027     0.01800
C315        C  0.54339856  0.43482270  0.72719760     0.16800
C316        C  0.56749457  0.46051188  0.73103965     0.26200
C317        C  0.56643546  0.48325646  0.74088308    -0.40200
C318        C  0.54053606  0.47990096  0.74478152     0.33200
C319        C  0.49281370  0.40336432  0.73537212     0.01800
F320        F  0.54511312  0.41321005  0.71834667    -0.12500
F321        F  0.53845223  0.50119115  0.75410008    -0.13000
C322        C  0.46969905  0.39567714  0.71424051     0.16800
C323        C  0.44541841  0.37018581  0.71880057     0.26200
C324        C  0.44379325  0.35197487  0.74479446    -0.40100
C325        C  0.46741088  0.35940057  0.76497476     0.33100
C326        C  0.49157695  0.38480942  0.76032815     0.14800
F327        F  0.47060571  0.41295546  0.68932351    -0.12500
F328        F  0.46698045  0.34253433  0.79017354    -0.13000
F329        F  0.42347495  0.36350834  0.69795993    -0.15300
F330        F  0.51349839  0.39181552  0.78138882    -0.13800
F331        F  0.49190600  0.45117301  0.74714010    -0.13800
F332        F  0.59190091  0.46290097  0.72589484    -0.15200
C333        C  0.40373980  0.13640324  0.73168429     0.14800
C334        C  0.38716529  0.13966333  0.75446740     0.01800
C335        C  0.37005188  0.11816291  0.77690844     0.16800
C336        C  0.36963850  0.09380826  0.77692462     0.26200
C337        C  0.38684406  0.09062896  0.75490242    -0.40200
C338        C  0.40364016  0.11212409  0.73188506     0.33200
C339        C  0.38722213  0.16525191  0.75488374     0.01800
F340        F  0.35344298  0.12069582  0.79865386    -0.12500
F341        F  0.42011892  0.10981235  0.70967779    -0.13000
C342        C  0.37623460  0.17231251  0.72690638     0.16800
C343        C  0.37354587  0.19491266  0.72885406     0.26200
C344        C  0.38191818  0.21094021  0.75889934    -0.40100
C345        C  0.39391665  0.20431363  0.78638023     0.33100
C346        C  0.39644904  0.18165481  0.78436856     0.14800
F347        F  0.36698517  0.15657620  0.69826335    -0.12500
F348        F  0.40293322  0.21951354  0.81548353    -0.13000
F349        F  0.36178848  0.20040646  0.70178598    -0.15300
F350        F  0.40761658  0.17545638  0.81146639    -0.13800
F351        F  0.42043189  0.15696561  0.70973468    -0.13800
F352        F  0.35213886  0.07328925  0.79838956    -0.15200
C353        C  0.55820292  0.03365761  0.71704521     0.14800
C354        C  0.53285349  0.01092197  0.72707013     0.01800
C355        C  0.53146761  0.98688284  0.73782466     0.16800
C356        C  0.55515488  0.98582825  0.73940666     0.26200
C357        C  0.58077223  0.00890922  0.73047108    -0.40200
C358        C  0.58197044  0.03278356  0.71900339     0.33200
C359        C  0.50835151  0.01297641  0.72886289     0.01800
F360        F  0.50739751  0.96483584  0.74854296    -0.12500
F361        F  0.60622197  0.05557308  0.71037527    -0.13000
C362        C  0.48392384  0.99448317  0.71118167     0.16800
C363        C  0.46041472  0.99560737  0.71474272     0.26200
C364        C  0.46095797  0.01536826  0.73597610    -0.40100
C365        C  0.48575130  0.03433599  0.75288276     0.33100
C366        C  0.50910227  0.03302982  0.74948527     0.14800
F367        F  0.48287459  0.97536332  0.69037244    -0.12500
F368        F  0.48726096  0.05360511  0.77383471    -0.13000
F369        F  0.43716464  0.97735927  0.69734217    -0.15300
F370        F  0.53225986  0.05078549  0.76746668    -0.13800
F371        F  0.56000419  0.05693923  0.70584471    -0.13800
F372        F  0.55314392  0.96263322  0.75144621    -0.15200
C373        C  0.81782651  0.17997210  0.77282573     0.14800
C374        C  0.80080019  0.17275212  0.74337963     0.01800
C375        C  0.80940530  0.19077159  0.71499148     0.16800
C376        C  0.83472963  0.21564744  0.71602062     0.26200
C377        C  0.85206779  0.22280699  0.74541305    -0.40200
C378        C  0.84320752  0.20462838  0.77383942     0.33200
C379        C  0.77451820  0.14597541  0.74221816     0.01800
F380        F  0.79316097  0.18434717  0.68634710    -0.12500
F381        F  0.85915738  0.21046771  0.80267124    -0.13000
C382        C  0.75417556  0.13939585  0.76653223     0.16800
C383        C  0.73042911  0.11323468  0.76754122     0.26200
C384        C  0.72657393  0.09308144  0.74420562    -0.40100
C385        C  0.74668107  0.10003943  0.71917387     0.33100
C386        C  0.77042763  0.12622960  0.71826563     0.14800
F387        F  0.75746632  0.15831617  0.78955821    -0.12500
F388        F  0.74398367  0.08122048  0.69641608    -0.13000
F389        F  0.71127614  0.10767122  0.79148188    -0.15300
F390        F  0.79005171  0.13194541  0.69496862    -0.13800
F391        F  0.81013598  0.16272675  0.80041101    -0.13800
F392        F  0.84224562  0.23258077  0.68813774    -0.15200
C393        C  0.80718313  0.56592435  0.73556096     0.14800
C394        C  0.79040870  0.55464330  0.76454805     0.01800
C395        C  0.79773269  0.54252256  0.79077934     0.16800
C396        C  0.82136222  0.54154608  0.78810830     0.26200
C397        C  0.83845477  0.55308238  0.75928510    -0.40200
C398        C  0.83090970  0.56509324  0.73284831     0.33200
C399        C  0.76473948  0.55460619  0.76686584     0.01800
F400        F  0.78172595  0.53125182  0.81887935    -0.12500
F401        F  0.84647706  0.57616955  0.70433631    -0.13000
C402        C  0.74369469  0.54070000  0.74218789     0.16800
C403        C  0.71937426  0.54048505  0.74405683     0.26200
C404        C  0.71557904  0.55431064  0.77070190    -0.40100
C405        C  0.73651364  0.56767275  0.79599455     0.33100
C406        C  0.76086165  0.56786011  0.79399132     0.14800
F407        F  0.74653081  0.52683963  0.71651935    -0.12500
F408        F  0.73361577  0.58075266  0.82261647    -0.13000
F409        F  0.69950170  0.52652965  0.71978563    -0.15300
F410        F  0.78087458  0.58137509  0.81827627    -0.13800
F411        F  0.80082413  0.57821437  0.71011198    -0.13800
F412        F  0.82747222  0.52934231  0.81390896    -0.15200
C413        C  0.93981172  0.46331388  0.71501479     0.14800
C414        C  0.91501762  0.43782433  0.71461444     0.01800
C415        C  0.89014582  0.43685528  0.71578670     0.16800
C416        C  0.89015655  0.46089415  0.71947011     0.26200
C417        C  0.91511415  0.48635369  0.72233423    -0.40200
C418        C  0.93989803  0.48731909  0.71869648     0.33200
C419        C  0.91550563  0.41248003  0.71721839     0.01800
F420        F  0.86584306  0.41250348  0.71453390    -0.12500
F421        F  0.96444934  0.51134666  0.72062156    -0.13000
C422        C  0.90421126  0.39529280  0.74616877     0.16800
C423        C  0.90738695  0.37318578  0.75135345     0.26200
C424        C  0.92201497  0.36776324  0.72770682    -0.40100
C425        C  0.93290627  0.38466678  0.69831903     0.33100
C426        C  0.92956283  0.40677277  0.69306370     0.14800
F427        F  0.89126399  0.40074236  0.77048059    -0.12500
F428        F  0.94671688  0.37979908  0.67463539    -0.13000
F429        F  0.89719375  0.35785371  0.78048751    -0.15300
F430        F  0.94025882  0.42278405  0.66454455    -0.13800
F431        F  0.96414925  0.46486763  0.71433103    -0.13800
F432        F  0.86573184  0.45906648  0.72130299    -0.15200
C433        C  0.59165183  0.58937719  0.98879520     0.14800
C434        C  0.61317670  0.58557555  0.98160342     0.01800
C435        C  0.63107345  0.58798122  0.00852635     0.16800
C436        C  0.62793820  0.59474488  0.04182586     0.26200
C437        C  0.60693919  0.59952950  0.04891498    -0.40200
C438        C  0.58852847  0.59627537  0.02201971     0.33200
C439        C  0.61739775  0.58010150  0.94574806     0.01800
F440        F  0.65221418  0.58467411  0.00236315    -0.12500
F441        F  0.56753914  0.59992165  0.02763489    -0.13000
C442        C  0.62113023  0.59852452  0.91905445     0.16800
C443        C  0.62429961  0.59328987  0.88503173     0.26200
C444        C  0.62440794  0.56974186  0.87696386    -0.40100
C445        C  0.62109185  0.55145837  0.90381157     0.33100
C446        C  0.61753069  0.55656262  0.93785731     0.14800
F447        F  0.62242018  0.62206463  0.92610414    -0.12500
F448        F  0.62086341  0.52840697  0.89710458    -0.13000
F449        F  0.62808474  0.61178452  0.86013939    -0.15300
F450        F  0.61378660  0.53828425  0.96304439    -0.13800
F451        F  0.57356348  0.58637106  0.96347831    -0.13800
F452        F  0.64578178  0.59692224  0.06698903    -0.15200
C453        C  0.35670506  0.32616583  0.91681772     0.14800
C454        C  0.34605569  0.30558181  0.94225685     0.01800
C455        C  0.33714603  0.27872761  0.93308875     0.16800
C456        C  0.33912219  0.27256249  0.89900135     0.26200
C457        C  0.35040877  0.29329026  0.87348664    -0.40200
C458        C  0.35892990  0.32014659  0.88279587     0.33200
C459        C  0.34360953  0.31209780  0.97815358     0.01800
F460        F  0.32611459  0.25837371  0.95710443    -0.12500
F461        F  0.36992827  0.34080441  0.85919971    -0.13000
C462        C  0.32669598  0.32194522  0.98531541     0.16800
C463        C  0.32429920  0.32832072  0.01904021     0.26200
C464        C  0.33867607  0.32477038  0.04650045    -0.40100
C465        C  0.35590251  0.31514328  0.03914203     0.33100
C466        C  0.35824040  0.30877098  0.00525889     0.14800
F467        F  0.31204476  0.32491523  0.95958598    -0.12500
F468        F  0.37029244  0.31160213  0.06468210    -0.13000
F469        F  0.30788422  0.33805309  0.02463934    -0.15300
F470        F  0.37500778  0.29959122  0.99882745    -0.13800
F471        F  0.36545992  0.35229143  0.92512943    -0.13800
F472        F  0.32981772  0.24624817  0.89104507    -0.15200
C473        C  0.42838453  0.46781968  0.17409659     0.14800
C474        C  0.45136622  0.46907788  0.18940611     0.01800
C475        C  0.44891910  0.44477240  0.20144069     0.16800
C476        C  0.42431827  0.41952813  0.19672022     0.26200
C477        C  0.40151635  0.41818997  0.18037313    -0.40200
C478        C  0.40373673  0.44276032  0.16983366     0.33200
C479        C  0.47834730  0.49536099  0.18964800     0.01800
F480        F  0.47053201  0.44548021  0.21737872    -0.12500
F481        F  0.38242380  0.44259825  0.15384596    -0.13000
C482        C  0.48130586  0.51908766  0.20353644     0.16800
C483        C  0.50584073  0.54445537  0.19961297     0.26200
C484        C  0.52797508  0.54647597  0.18210724    -0.40100
C485        C  0.52529538  0.52255764  0.16939991     0.33100
C486        C  0.50072999  0.49732890  0.17299298     0.14800
F487        F  0.46026172  0.51774444  0.22044709    -0.12500
F488        F  0.54586116  0.52377281  0.15146785    -0.13000
F489        F  0.50785345  0.56703946  0.21270800    -0.15300
F490        F  0.49829472  0.47503055  0.15831327    -0.13800
F491        F  0.43017346  0.49077264  0.16148101    -0.13800
F492        F  0.42301690  0.39645355  0.20774805    -0.15200
C493        C  0.01108617  0.33834625  0.89005587     0.14800
C494        C  0.99464177  0.32781122  0.91943168     0.01800
C495        C  0.96596473  0.31327077  0.91530420     0.16800
C496        C  0.95391089  0.30888963  0.88241568     0.26200
C497        C  0.97032838  0.31913628  0.85282661    -0.40200
C498        C  0.99909096  0.33424043  0.85713330     0.33200
C499        C  0.00724789  0.33245782  0.95445919     0.01800
F500        F  0.94955626  0.30367231  0.94327489    -0.12500
F501        F  0.01574452  0.34470758  0.82947490    -0.13000
C502        C  0.02603905  0.35913666  0.96590130     0.16800
C503        C  0.03667210  0.36370666  0.99958064     0.26200
C504        C  0.02872868  0.34166884  0.02255963    -0.40100
C505        C  0.01040366  0.31488538  0.01083653     0.33100
C506        C  0.99983880  0.31034352  0.97708772     0.14800
F507        F  0.03341859  0.38092855  0.94480835    -0.12500
F508        F  0.00290641  0.29301429  0.03186377    -0.13000
F509        F  0.05401176  0.38982907  0.01001553    -0.15300
F510        F  0.98248800  0.28427745  0.96640483    -0.13800
F511        F  0.03884495  0.35216660  0.89316083    -0.13800
F512        F  0.92611808  0.29475026  0.87972181    -0.15200
C513        C  0.17953262  0.37196754  0.16689564     0.14800
C514        C  0.18684982  0.36084386  0.14057686     0.01800
C515        C  0.17046648  0.35138756  0.11047914     0.16800
C516        C  0.14695885  0.35263718  0.10693627     0.26200
C517        C  0.13906519  0.36300473  0.13373035    -0.40200
C518        C  0.15589068  0.37303377  0.16356919     0.33200
C519        C  0.21154967  0.35909916  0.14441291     0.01800
F520        F  0.17679661  0.34015870  0.08482554    -0.12500
F521        F  0.14942222  0.38368053  0.18979019    -0.13000
C522        C  0.21426952  0.34472576  0.17228156     0.16800
C523        C  0.23733286  0.34259005  0.17537054     0.26200
C524        C  0.25799858  0.35455424  0.15036147    -0.40100
C525        C  0.25532813  0.36927974  0.12276594     0.33100
C526        C  0.23235129  0.37146328  0.11983688     0.14800
F527        F  0.19407370  0.33188361  0.19585353    -0.12500
F528        F  0.27496544  0.38166170  0.09845052    -0.13000
F529        F  0.23893309  0.32807987  0.20227279    -0.15300
F530        F  0.23043498  0.38576032  0.09289535    -0.13800
F531        F  0.19541404  0.38197459  0.19582615    -0.13800
F532        F  0.13170718  0.34317708  0.07744624    -0.15200
C533        C  0.00687314  0.61746958  0.97454031     0.14800
C534        C  0.98141095  0.59353147  0.96771251     0.01800
C535        C  0.96753292  0.57493760  0.99476498     0.16800
C536        C  0.97920340  0.57989559  0.02795142     0.26200
C537        C  0.00500388  0.60366970  0.03476002    -0.40200
C538        C  0.01858556  0.62251428  0.00765504     0.33200
C539        C  0.97001747  0.58750470  0.93204178     0.01800
F540        F  0.94258512  0.55194830  0.98904250    -0.12500
F541        F  0.04345196  0.64572550  0.01290219    -0.13000
C542        C  0.96534971  0.56406484  0.91535270     0.16800
C543        C  0.95581248  0.55887228  0.88112755     0.26200
C544        C  0.95047945  0.57695890  0.86289589    -0.40100
C545        C  0.95514274  0.60044569  0.87985956     0.33100
C546        C  0.96483469  0.60563857  0.91403387     0.14800
F547        F  0.97069269  0.54648251  0.93201100    -0.12500
F548        F  0.95055754  0.61861279  0.86340024    -0.13000
F549        F  0.95193141  0.53613059  0.86592758    -0.15300
F550        F  0.96898662  0.62834521  0.92968812    -0.13800
F551        F  0.02085493  0.63564056  0.94880416    -0.13800
F552        F  0.96532555  0.56118841  0.05323117    -0.15200
C553        C  0.07179451  0.52159233  0.14057510     0.14800
C554        C  0.05314484  0.49952574  0.16131101     0.01800
C555        C  0.03316284  0.50121127  0.17906025     0.16800
C556        C  0.03152025  0.52444424  0.17567323     0.26200
C557        C  0.05007090  0.54659428  0.15462787    -0.40200
C558        C  0.07032605  0.54487139  0.13724807     0.33200
C559        C  0.05304960  0.47389106  0.16166933     0.01800
F560        F  0.01497858  0.48011666  0.19934513    -0.12500
F561        F  0.08837308  0.56539017  0.11618036    -0.13000
C562        C  0.07624778  0.47356583  0.17289338     0.16800
C563        C  0.07708911  0.44999550  0.16924418     0.26200
C564        C  0.05473402  0.42639845  0.15412671    -0.40100
C565        C  0.03103232  0.42646359  0.14455954     0.33100
C566        C  0.03024544  0.44997273  0.14828775     0.14800
F567        F  0.09814949  0.49616070  0.18713694    -0.12500
F568        F  0.00895440  0.40416640  0.13010080    -0.13000
F569        F  0.09981254  0.45035438  0.18034670    -0.15300
F570        F  0.00760069  0.44976716  0.13723013    -0.13800
F571        F  0.09072484  0.52010121  0.12224360    -0.13800
F572        F  0.01130925  0.52485656  0.19232615    -0.15200
C573        C  0.35843503  0.96795741  0.99583767     0.14800
C574        C  0.36311756  0.95405850  0.97040414     0.01800
C575        C  0.36225733  0.92997341  0.97945575     0.16800
C576        C  0.35619821  0.91960965  0.01322206     0.26200
C577        C  0.35101907  0.93327286  0.03867248    -0.40200
C578        C  0.35249732  0.95773570  0.02959782     0.33200
C579        C  0.36787981  0.96418912  0.93422047     0.01800
F580        F  0.36754766  0.91661500  0.95558163    -0.12500
F581        F  0.34748717  0.97151038  0.05315187    -0.13000
C582        C  0.38994381  0.99053224  0.92604442     0.16800
C583        C  0.39376869  0.00036259  0.89203200     0.26200
C584        C  0.37555521  0.98398063  0.86544977    -0.40100
C585        C  0.35360888  0.95746826  0.87376677     0.33100
C586        C  0.34981297  0.94774589  0.90778627     0.14800
F587        F  0.40800233  0.00665631  0.95100846    -0.12500
F588        F  0.33539175  0.94102628  0.84914348    -0.13000
F589        F  0.41551703  0.02582043  0.88516641    -0.15300
F590        F  0.32796519  0.92244937  0.91510628    -0.13800
F591        F  0.35878556  0.99107505  0.98772751    -0.13800
F592        F  0.35568660  0.89635980  0.02098114    -0.15200
C593        C  0.21881012  0.78054638  0.17628895     0.14800
C594        C  0.20143522  0.77123805  0.14706065     0.01800
C595        C  0.20918525  0.78785628  0.11730392     0.16800
C596        C  0.23409158  0.81313338  0.11658061     0.26200
C597        C  0.25180390  0.82234984  0.14568012    -0.40200
C598        C  0.24369543  0.80582582  0.17567021     0.33200
C599        C  0.17545431  0.74404465  0.14741421     0.01800
F600        F  0.19247516  0.77967237  0.08894665    -0.12500
F601        F  0.25970749  0.81416889  0.20463002    -0.13000
C602        C  0.15518096  0.73779615  0.17176699     0.16800
C603        C  0.13044466  0.71235511  0.17148196     0.26200
C604        C  0.12540866  0.69276094  0.14658118    -0.40100
C605        C  0.14608634  0.69876639  0.12290729     0.33100
C606        C  0.17084113  0.72414314  0.12334484     0.14800
F607        F  0.15898595  0.75667355  0.19518099    -0.12500
F608        F  0.14249459  0.67995163  0.09951647    -0.13000
F609        F  0.11104374  0.70733959  0.19477542    -0.15300
F610        F  0.19048717  0.72921236  0.10041397    -0.13800
F611        F  0.21192885  0.76483892  0.20529212    -0.13800
F612        F  0.24101282  0.82833007  0.08713114    -0.15200
C613        C  0.63113894  0.92951286  0.97582629     0.14800
C614        C  0.62912676  0.95188629  0.96600021     0.01800
C615        C  0.62279948  0.96480848  0.99109196     0.16800
C616        C  0.61835927  0.95538652  0.02532906     0.26200
C617        C  0.61974007  0.93253582  0.03504778    -0.40200
C618        C  0.62635089  0.91983169  0.00984338     0.33200
C619        C  0.63357157  0.96157919  0.92957035     0.01800
F620        F  0.62014013  0.98611489  0.98223754    -0.12500
F621        F  0.62822082  0.89793916  0.01796703    -0.13000
C622        C  0.61803707  0.94353263  0.90274911     0.16800
C623        C  0.62266831  0.95242015  0.86832659     0.26200
C624        C  0.64284326  0.97970913  0.85995994    -0.40100
C625        C  0.65825334  0.99776619  0.88699211     0.33100
C626        C  0.65367621  0.98876546  0.92135311     0.14800
F627        F  0.59801816  0.91729753  0.90994908    -0.12500
F628        F  0.67786302  0.02423974  0.88033272    -0.13000
F629        F  0.60732703  0.93419789  0.84328741    -0.15300
F630        F  0.66931961  0.00655761  0.94663278    -0.13800
F631        F  0.63802543  0.91711086  0.95245508    -0.13800
F632        F  0.61211280  0.96831595  0.04869603    -0.15200
C633        C  0.60356053  0.73976197  0.12714169     0.14800
C634        C  0.58638064  0.74134451  0.15081699     0.01800
C635        C  0.57291184  0.72041686  0.17555047     0.16800
C636        C  0.57666186  0.69840734  0.17673591     0.26200
C637        C  0.59337893  0.69643094  0.15251772    -0.40200
C638        C  0.60695775  0.71753682  0.12786681     0.33200
C639        C  0.58352580  0.76541108  0.15044246     0.01800
F640        F  0.55566679  0.72102175  0.19821807    -0.12500
F641        F  0.62401776  0.71703788  0.10480238    -0.13000
C642        C  0.57529475  0.77308603  0.12015652     0.16800
C643        C  0.57537036  0.79731798  0.11880369     0.26200
C644        C  0.58345688  0.81431033  0.14788408    -0.40100
C645        C  0.59033856  0.80582427  0.17872072     0.33100
C646        C  0.59049963  0.78172483  0.17989166     0.14800
F647        F  0.56746968  0.75723069  0.09166089    -0.12500
F648        F  0.59815379  0.82141528  0.20745236    -0.13000
F649        F  0.56802425  0.80434510  0.08873475    -0.15300
F650        F  0.59883877  0.77505029  0.20941499    -0.13800
F651        F  0.61758240  0.76011991  0.10369214    -0.13800
F652        F  0.56355523  0.67885334  0.20137288    -0.15200
C653        C  0.50319579  0.91798502  0.19218872     0.14800
C654        C  0.47924856  0.90205914  0.17220355     0.01800
C655        C  0.47877917  0.88441364  0.14748391     0.16800
C656        C  0.50175551  0.88276531  0.14255598     0.26200
C657        C  0.52591325  0.89875410  0.16231555    -0.40200
C658        C  0.52626274  0.91619891  0.18751377     0.33200
C659        C  0.45466167  0.90380064  0.17610971     0.01800
F660        F  0.45616609  0.86924433  0.12722800    -0.12500
F661        F  0.54885129  0.93150504  0.20773271    -0.13000
C662        C  0.45596744  0.92848047  0.16977996     0.16800
C663        C  0.43185258  0.92887031  0.16744588     0.26200
C664        C  0.40602789  0.90452750  0.17137739    -0.40100
C665        C  0.40501077  0.88023349  0.17984177     0.33100
C666        C  0.42906272  0.87993876  0.18236430     0.14800
F667        F  0.48041972  0.95187651  0.16367020    -0.12500
F668        F  0.38063478  0.85647417  0.18478941    -0.13000
F669        F  0.43375586  0.95272812  0.15915528    -0.15300
F670        F  0.42729113  0.85601966  0.18977994    -0.13800
F671        F  0.50417970  0.93509612  0.21640956    -0.13800
F672        F  0.50040353  0.86588331  0.11772846    -0.15200
C673        C  0.81392486  0.08221769  0.20427538     0.14800
C674        C  0.83950981  0.08845108  0.21745796     0.01800
C675        C  0.84151981  0.06825944  0.23537708     0.16800
C676        C  0.81826981  0.04222747  0.24034621     0.26200
C677        C  0.79246202  0.03580510  0.22729903    -0.40200
C678        C  0.79058516  0.05607564  0.20897285     0.33200
C679        C  0.86402559  0.11634056  0.21434222     0.01800
F680        F  0.86594435  0.07408134  0.24913694    -0.12500
F681        F  0.76623132  0.05065768  0.19548696    -0.13000
C682        C  0.86572100  0.13783829  0.23266413     0.16800
C683        C  0.89027911  0.16335184  0.23390538     0.26200
C684        C  0.91366887  0.16777390  0.21685764    -0.40100
C685        C  0.91131376  0.14655727  0.19676263     0.33100
C686        C  0.88671739  0.12105922  0.19564878     0.14800
F687        F  0.84403517  0.13361456  0.25108675    -0.12500
F688        F  0.93301874  0.15013164  0.17898959    -0.13000
F689        F  0.89149051  0.18316301  0.25343832    -0.15300
F690        F  0.88523157  0.10067811  0.17705593    -0.13800
F691        F  0.81159589  0.10148319  0.18682348    -0.13800
F692        F  0.82099982  0.02359695  0.25882579    -0.15200
C693        C  0.10910733  0.24205628  0.23366430     0.14800
C694        C  0.10438576  0.21578901  0.23837514     0.01800
C695        C  0.07747408  0.19351723  0.24302584     0.16800
C696        C  0.05553001  0.19746001  0.24296820     0.26200
C697        C  0.06019238  0.22379841  0.23797402    -0.40200
C698        C  0.08725269  0.24602915  0.23316313     0.33200
C699        C  0.12772674  0.21187954  0.23890448     0.01800
F700        F  0.07245502  0.16790465  0.24727574    -0.12500
F701        F  0.09277320  0.27182315  0.22879612    -0.13000
C702        C  0.13430628  0.20253511  0.26900528     0.16800
C703        C  0.15770750  0.20099033  0.27043553     0.26200
C704        C  0.17471498  0.20837824  0.24155821    -0.40100
C705        C  0.16739545  0.21663221  0.21094124     0.33100
C706        C  0.14427536  0.21868573  0.20980140     0.14800
F707        F  0.11866466  0.19596855  0.29749308    -0.12500
F708        F  0.18331174  0.22400433  0.18261958    -0.13000
F709        F  0.16388071  0.19254049  0.30024403    -0.15300
F710        F  0.13825103  0.22777898  0.18043956    -0.13800
F711        F  0.13505915  0.26403593  0.23045274    -0.13800
F712        F  0.02976750  0.17546081  0.24748356    -0.15200
C713        C  0.73641087  0.80412745  0.20926363     0.14800
C714        C  0.74915039  0.82308356  0.23599083     0.01800
C715        C  0.76194439  0.81763280  0.26340042     0.16800
C716        C  0.76033345  0.79271718  0.26543810     0.26200
C717        C  0.74585960  0.77276767  0.23995714    -0.40200
C718        C  0.73499880  0.77925747  0.21101801     0.33200
C719        C  0.74639255  0.84696570  0.23749909     0.01800
F720        F  0.77498765  0.83605339  0.28904788    -0.12500
F721        F  0.72175717  0.76105345  0.18520861    -0.13000
C722        C  0.73204114  0.84895127  0.26479741     0.16800
C723        C  0.72864368  0.87098546  0.26654475     0.26200
C724        C  0.73932805  0.89142564  0.24076983    -0.40100
C725        C  0.75379518  0.88947208  0.21338677     0.33100
C726        C  0.75728277  0.86734279  0.21178587     0.14800
F727        F  0.72055910  0.82901247  0.28932875    -0.12500
F728        F  0.76487331  0.90911014  0.18848267    -0.13000
F729        F  0.71399176  0.87172740  0.29291296    -0.15300
F730        F  0.77147446  0.86589563  0.18537960    -0.13800
F731        F  0.72368397  0.80887852  0.18265721    -0.13800
F732        F  0.77193561  0.78776754  0.29319023    -0.15200
C733        C  0.86344485  0.65329764  0.25116767     0.14800
C734        C  0.86107178  0.67010608  0.22653459     0.01800
C735        C  0.88201841  0.68453623  0.20252706     0.16800
C736        C  0.90547701  0.68303983  0.20388788     0.26200
C737        C  0.90840623  0.66689997  0.22923784    -0.40200
C738        C  0.88686526  0.65168764  0.25256064     0.33200
C739        C  0.83758432  0.67388192  0.22734108     0.01800
F740        F  0.87982206  0.70030630  0.17787726    -0.12500
F741        F  0.88896954  0.63630394  0.27787078    -0.13000
C742        C  0.84208988  0.69969952  0.23432033     0.16800
C743        C  0.81995069  0.70305103  0.23776041     0.26200
C744        C  0.79275149  0.68055723  0.23422910    -0.40100
C745        C  0.78838697  0.65492239  0.22586993     0.33100
C746        C  0.81059315  0.65162755  0.22265817     0.14800
F747        F  0.86799058  0.72152807  0.23915318    -0.12500
F748        F  0.76260785  0.63281754  0.22145305    -0.13000
F749        F  0.82526545  0.72824469  0.24536836    -0.15300
F750        F  0.80572955  0.62660024  0.21516441    -0.13800
F751        F  0.84359584  0.63940253  0.27493277    -0.13800
F752        F  0.92548406  0.69772447  0.18059062    -0.15200
C753        C  0.15886914  0.83854405  0.19994962     0.14800
C754        C  0.13867828  0.83048578  0.22492811     0.01800
C755        C  0.14330341  0.84799282  0.25221507     0.16800
C756        C  0.16803486  0.87310024  0.25506591     0.26200
C757        C  0.18866229  0.88128023  0.23044462    -0.40200
C758        C  0.18362957  0.86389694  0.20246938     0.33200
C759        C  0.11317171  0.80329926  0.22411692     0.01800
F760        F  0.12408518  0.84026808  0.27683068    -0.12500
F761        F  0.20296440  0.87093714  0.17822562    -0.13000
C762        C  0.11348459  0.78037049  0.23567874     0.16800
C763        C  0.08890490  0.75526385  0.24004360     0.26200
C764        C  0.06349520  0.75260626  0.23251251    -0.40100
C765        C  0.06341514  0.77564266  0.22009006     0.33100
C766        C  0.08807501  0.80075373  0.21598730     0.14800
F767        F  0.13760886  0.78261398  0.24413073    -0.12500
F768        F  0.03950700  0.77416371  0.21274814    -0.13000
F769        F  0.09008506  0.73378328  0.25240090    -0.15300
F770        F  0.08749251  0.82282175  0.20477062    -0.13800
F771        F  0.15473718  0.82169837  0.17347834    -0.13800
F772        F  0.17182809  0.88921758  0.28225629    -0.15200
C773        C  0.29490785  0.08022891  0.24178316     0.14800
C774        C  0.27635156  0.08158394  0.21896375     0.01800
C775        C  0.25967382  0.05940828  0.19719247     0.16800
C776        C  0.26047796  0.03567466  0.19949008     0.26200
C777        C  0.27806594  0.03371700  0.22360658    -0.40200
C778        C  0.29588149  0.05659512  0.24398616     0.33200
C779        C  0.27254523  0.10493752  0.22037219     0.01800
F780        F  0.24207542  0.06051399  0.17428831    -0.12500
F781        F  0.31307966  0.05557264  0.26764690    -0.13000
C782        C  0.29444827  0.13180625  0.21422135     0.16800
C783        C  0.29107165  0.15385119  0.21822287     0.26200
C784        C  0.26561646  0.14936217  0.22825623    -0.40100
C785        C  0.24368130  0.12233815  0.23409541     0.33100
C786        C  0.24713185  0.10041858  0.23012925     0.14800
F787        F  0.31912632  0.13667609  0.20436744    -0.12500
F788        F  0.21912220  0.11706792  0.24512895    -0.13000
F789        F  0.31276990  0.17955315  0.21242233    -0.15300
F790        F  0.22587250  0.07473339  0.23724044    -0.13800
F791        F  0.31088082  0.10116547  0.26355121    -0.13800
F792        F  0.24364683  0.01443543  0.17854403    -0.15200
C793        C  0.67414919  0.93361253  0.48548559     0.14800
C794        C  0.69768698  0.94880386  0.46541089     0.01800
C795        C  0.72363108  0.96224169  0.48151882     0.16800
C796        C  0.72611287  0.96075340  0.51721509     0.26200
C797        C  0.70256161  0.94595984  0.53769065    -0.40200
C798        C  0.67652793  0.93208830  0.52135586     0.33200
C799        C  0.69566300  0.94929677  0.42742169     0.01800
F800        F  0.74670040  0.97646591  0.46250788    -0.12500
F801        F  0.65336150  0.91708016  0.53997204    -0.13000
C802        C  0.70560673  0.97408146  0.40948958     0.16800
C803        C  0.70749532  0.97506379  0.37352671     0.26200
C804        C  0.69962242  0.95122157  0.35492736    -0.40100
C805        C  0.68822800  0.92615178  0.37303074     0.33100
C806        C  0.68632870  0.92527367  0.40892257     0.14800
F807        F  0.71420357  0.99746740  0.42697226    -0.12500
F808        F  0.68016964  0.90257995  0.35634058    -0.13000
F809        F  0.71777311  0.99949971  0.35712668    -0.15300
F810        F  0.67692102  0.90116627  0.42585954    -0.13800
F811        F  0.64885841  0.92054937  0.47033097    -0.13800
F812        F  0.75170275  0.97392350  0.53158064    -0.15200
C813        C  0.68546052  0.65322044  0.49887113     0.14800
C814        C  0.70943667  0.66989389  0.48007694     0.01800
C815        C  0.73390841  0.68813782  0.49776103     0.16800
C816        C  0.73432326  0.69015562  0.53366916     0.26200
C817        C  0.71023649  0.67366045  0.55272556    -0.40200
C818        C  0.68582629  0.65498217  0.53485179     0.33200
C819        C  0.70871702  0.66936767  0.44190687     0.01800
F820        F  0.75731778  0.70457780  0.48009722    -0.12500
F821        F  0.66216510  0.63858292  0.55203957    -0.13000
C822        C  0.69376207  0.67839189  0.42331821     0.16800
C823        C  0.69460893  0.67996778  0.38727903     0.26200
C824        C  0.71025477  0.67223345  0.36904043    -0.40100
C825        C  0.72452363  0.66232637  0.38782654     0.33100
C826        C  0.72392911  0.66115087  0.42392716     0.14800
F827        F  0.67915461  0.68671164  0.44022949    -0.12500
F828        F  0.73992675  0.65471807  0.37143489    -0.13000
F829        F  0.68043920  0.68952167  0.37036238    -0.15300
F830        F  0.73849982  0.65229755  0.44141706    -0.13800
F831        F  0.66166336  0.63514782  0.48229500    -0.13800
F832        F  0.75834123  0.70849254  0.54962338    -0.15200
C833        C  0.72010402  0.79454188  0.70802766     0.14800
C834        C  0.70269106  0.79853996  0.68625172     0.01800
C835        C  0.68431174  0.77745709  0.66404923     0.16800
C836        C  0.68396954  0.75311259  0.66277437     0.26200
C837        C  0.70217769  0.74940370  0.68362526    -0.40200
C838        C  0.71980180  0.77022174  0.70687121     0.33200
C839        C  0.70494788  0.82530516  0.68486667     0.01800
F840        F  0.66763561  0.78101453  0.64224565    -0.12500
F841        F  0.73725603  0.76739825  0.72805970    -0.13000
C842        C  0.72969303  0.84891536  0.67507757     0.16800
C843        C  0.73145720  0.87384341  0.67090146     0.26200
C844        C  0.70841840  0.87572856  0.67636178    -0.40100
C845        C  0.68380347  0.85214598  0.68709317     0.33100
C846        C  0.68215692  0.82721312  0.69141200     0.14800
F847        F  0.75194605  0.84761540  0.66813898    -0.12500
F848        F  0.66119287  0.85305208  0.69307273    -0.13000
F849        F  0.75553513  0.89587629  0.66017413    -0.15300
F850        F  0.65824958  0.80485018  0.70191117    -0.13800
F851        F  0.73778143  0.81445486  0.73007790    -0.13800
F852        F  0.66652168  0.73368552  0.64007073    -0.15200
C853        C  0.97587107  0.63328637  0.40872036     0.14800
C854        C  0.98219035  0.65536781  0.42976592     0.01800
C855        C  0.99088436  0.68088278  0.41472058     0.16800
C856        C  0.99288542  0.68434614  0.37898176     0.26200
C857        C  0.98572565  0.66209856  0.35742586    -0.40200
C858        C  0.97748185  0.63654157  0.37276098     0.33200
C859        C  0.97958010  0.65230273  0.46755048     0.01800
F860        F  0.99732652  0.70250636  0.43483157    -0.12500
F861        F  0.97071015  0.61461932  0.35307653    -0.13000
C862        C  0.00210358  0.65743565  0.48821480     0.16800
C863        C  0.00157459  0.65981313  0.52399296     0.26200
C864        C  0.97836130  0.65701922  0.53967620    -0.40100
C865        C  0.95510038  0.65003830  0.51885451     0.33100
C866        C  0.95585295  0.64794254  0.48309167     0.14800
F867        F  0.02513727  0.66150738  0.47347687    -0.12500
F868        F  0.93191763  0.64624393  0.53279476    -0.13000
F869        F  0.02426229  0.66602742  0.54295778    -0.15300
F870        F  0.93384725  0.64290000  0.46338163    -0.13800
F871        F  0.96791336  0.60857021  0.42298920    -0.13800
F872        F  0.00178191  0.70955642  0.36562907    -0.15200
C873        C  0.88015981  0.68706520  0.70931152     0.14800
C874        C  0.87118426  0.69843390  0.68409099     0.01800
C875        C  0.88667989  0.71011565  0.65423588     0.16800
C876        C  0.90992364  0.70896529  0.64864809     0.26200
C877        C  0.91826495  0.69632205  0.67309551    -0.40200
C878        C  0.90365552  0.68626223  0.70408447     0.33200
C879        C  0.84425780  0.69562918  0.68698615     0.01800
F880        F  0.87839487  0.72130178  0.62955639    -0.12500
F881        F  0.91126554  0.67445793  0.72871542    -0.13000
C882        C  0.84236837  0.71873384  0.68920242     0.16800
C883        C  0.81671046  0.71601487  0.68790044     0.26200
C884        C  0.79248140  0.69008384  0.68381379    -0.40100
C885        C  0.79453646  0.66686967  0.68304301     0.33100
C886        C  0.82016263  0.66966640  0.68475001     0.14800
F887        F  0.86544242  0.74396905  0.69217721    -0.12500
F888        F  0.77185540  0.64142057  0.67947277    -0.13000
F889        F  0.81571548  0.73885091  0.68998705    -0.15300
F890        F  0.82153341  0.64703240  0.68259260    -0.13800
F891        F  0.86565215  0.67599780  0.73858039    -0.13800
F892        F  0.92370006  0.71949257  0.61877741    -0.15200
C893        C  0.27689915  0.93387692  0.48960977     0.14800
C894        C  0.28576157  0.95778818  0.47020557     0.01800
C895        C  0.29286545  0.98196982  0.48693620     0.16800
C896        C  0.29041855  0.98215951  0.52266852     0.26200
C897        C  0.28059683  0.95797929  0.54232114    -0.29400
C898        C  0.27432029  0.93390823  0.52539157     0.33200
C899        C  0.28401265  0.95678294  0.43226651     0.01800
F900        F  0.30119842  0.00519830  0.46837866    -0.12500
F901        F  0.26474614  0.91012317  0.54315878    -0.13000
C902        C  0.25994844  0.95193930  0.41584114     0.16800
C903        C  0.25791584  0.95186275  0.37996175     0.26200
C904        C  0.28009926  0.95676075  0.35961013    -0.40100
C905        C  0.30425235  0.96137784  0.37630064     0.33100
C906        C  0.30614596  0.96138312  0.41244091     0.14800
F907        F  0.23836454  0.94743572  0.43474682    -0.12500
F908        F  0.32609939  0.96613108  0.35780349    -0.13000
F909        F  0.23406961  0.94692982  0.36529860    -0.15300
F910        F  0.32960563  0.96612356  0.42810559    -0.13800
F911        F  0.26969636  0.91024204  0.47366888    -0.13800
F912        F  0.29699384  0.00590715  0.53776287    -0.15200
C913        C  0.14317810  0.85103404  0.69083826     0.14800
C914        C  0.13923999  0.82842514  0.67277670     0.01800
C915        C  0.16111963  0.83055285  0.65484130     0.16800
C916        C  0.18647489  0.85522328  0.65404002     0.26200
C917        C  0.19045429  0.87823820  0.67141397    -0.40200
C918        C  0.16862123  0.87576171  0.69030789     0.33200
C919        C  0.11192275  0.80302387  0.67081214     0.01800
F920        F  0.15754168  0.80898293  0.63685257    -0.12500
F921        F  0.17175001  0.89727941  0.70798162    -0.13000
C922        C  0.09115576  0.80222200  0.65027336     0.16800
C923        C  0.06568299  0.77788310  0.64666883     0.26200
C924        C  0.06047004  0.75382508  0.66370415    -0.40100
C925        C  0.08137681  0.75482271  0.68455632     0.33100
C926        C  0.10693823  0.77923449  0.68790416     0.14800
F927        F  0.09588652  0.82488502  0.63279830    -0.12500
F928        F  0.07710114  0.73229165  0.70190279    -0.13000
F929        F  0.04643534  0.77776818  0.62563127    -0.15300
F930        F  0.12690659  0.77972208  0.70780694    -0.13800
F931        F  0.12225845  0.84917744  0.70867681    -0.13800
F932        F  0.20666999  0.85688107  0.63477969    -0.15200
C933        C  0.28405096  0.24893509  0.41467852     0.14800
C934        C  0.27202785  0.22489272  0.43466838     0.01800
C935        C  0.26078227  0.19962760  0.41823325     0.16800
C936        C  0.25995866  0.19824658  0.38228397     0.26200
C937        C  0.27067941  0.22221613  0.36203336    -0.40200
C938        C  0.28355946  0.24765897  0.37867630     0.33200
C939        C  0.26889902  0.22587101  0.47226327     0.01800
F940        F  0.24989917  0.17615613  0.43707249    -0.12500
F941        F  0.29443543  0.27128576  0.36021027    -0.13000
C942        C  0.24253254  0.21186734  0.48626074     0.16800
C943        C  0.23905664  0.21228840  0.52164703     0.26200
C944        C  0.26193881  0.22706800  0.54389026    -0.40100
C945        C  0.28836829  0.24185252  0.52964354     0.33100
C946        C  0.29179938  0.24106681  0.49413975     0.14800
F947        F  0.21999792  0.19797762  0.46547211    -0.12500
F948        F  0.31097040  0.25654782  0.55005844    -0.13000
F949        F  0.21315607  0.19819469  0.53400406    -0.15300
F950        F  0.31751684  0.25460736  0.48122080    -0.13800
F951        F  0.29482288  0.27357324  0.42994532    -0.13800
F952        F  0.24799845  0.17332278  0.36740042    -0.15200
C953        C  0.21945471  0.09198551  0.67984801     0.14800
C954        C  0.24344630  0.09183815  0.67499113     0.01800
C955        C  0.26803075  0.11643320  0.66759129     0.16800
C956        C  0.26862122  0.14079411  0.66458868     0.26200
C957        C  0.24452818  0.14103468  0.66874307    -0.40200
C958        C  0.21996545  0.11641278  0.67677213     0.33200
C959        C  0.24286943  0.06600896  0.67550459     0.01800
F960        F  0.29136688  0.11670492  0.66214209    -0.12500
F961        F  0.19628358  0.11578807  0.68052756    -0.13000
C962        C  0.22763420  0.04617569  0.65037348     0.16800
C963        C  0.23003828  0.02350221  0.64759231     0.26200
C964        C  0.24785250  0.02032420  0.66992729    -0.40100
C965        C  0.26206969  0.03963863  0.69620073     0.33100
C966        C  0.25959268  0.06226376  0.69888624     0.14800
F967        F  0.21153769  0.04953786  0.62729106    -0.12500
F968        F  0.27924942  0.03731684  0.71854391    -0.13000
F969        F  0.21552996  0.00516675  0.62231661    -0.15300
F970        F  0.27412710  0.08097310  0.72379197    -0.13800
F971        F  0.19553090  0.06842616  0.68735126    -0.13800
F972        F  0.29288787  0.16417412  0.65764574    -0.15200
C973        C  0.01313412  0.28375277  0.48079207     0.14800
C974        C  0.99166180  0.26376359  0.46019944     0.01800
C975        C  0.96826596  0.24213385  0.47594830     0.16800
C976        C  0.96673185  0.23986813  0.51178967     0.26200
C977        C  0.98877782  0.25909912  0.53265506    -0.40200
C978        C  0.01173417  0.28149171  0.51677050     0.33200
C979        C  0.99436001  0.26391440  0.42244426     0.01800
F980        F  0.94744134  0.22233560  0.45655061    -0.12500
F981        F  0.03332443  0.30062341  0.53588068    -0.13000
C982        C  0.01474843  0.26073352  0.40861897     0.16800
C983        C  0.01528917  0.25723665  0.37320588     0.26200
C984        C  0.99545138  0.25696997  0.35091384    -0.40100
C985        C  0.97569525  0.26126953  0.36474878     0.33100
C986        C  0.97510975  0.26458468  0.40025784     0.14800
F987        F  0.03338698  0.25971636  0.42965528    -0.12500
F988        F  0.95623609  0.26116996  0.34419028    -0.13000
F989        F  0.03504628  0.25372412  0.36089267    -0.15300
F990        F  0.95535691  0.26784619  0.41316002    -0.13800
F991        F  0.03572474  0.30511627  0.46599396    -0.13800
F992        F  0.94391394  0.21830982  0.52593297    -0.15200
C993        C  0.84057094  0.05782275  0.66353839     0.14800
C994        C  0.84033638  0.08163737  0.65670364     0.01800
C995        C  0.81516848  0.07967807  0.65152422     0.16800
C996        C  0.79063160  0.05422952  0.65205306     0.26200
C997        C  0.79075517  0.03019959  0.65813104    -0.40200
C998        C  0.81596574  0.03229026  0.66449643     0.33200
C999        C  0.86632566  0.10855340  0.65490002     0.01800
F1000       F  0.81438477  0.10241685  0.64518829    -0.12500
F1001       F  0.81692524  0.00963404  0.67065832    -0.13000
C1002       C  0.88548954  0.11402707  0.62933352     0.16800
C1003       C  0.91002332  0.13956773  0.62751693     0.26200
C1004       C  0.91590814  0.16008728  0.65148590    -0.40100
C1005       C  0.89645899  0.15442360  0.67699538     0.33100
C1006       C  0.87186263  0.12900989  0.67844728     0.14800
F1007       F  0.88003349  0.09484541  0.60547448    -0.12500
F1008       F  0.90106643  0.17347766  0.70059252    -0.13000
F1009       F  0.92767665  0.14428340  0.60185029    -0.15300
F1010       F  0.85341465  0.12430128  0.70303113    -0.13800
F1011       F  0.86467875  0.05936596  0.66942784    -0.13800
F1012       F  0.76671120  0.05316716  0.64663156    -0.15200
C1013       C  0.16415124  0.26067109  0.67640125     0.14800
C1014       C  0.13750073  0.23918338  0.66747246     0.01800
C1015       C  0.13347276  0.21401009  0.65779976     0.16800
C1016       C  0.15546374  0.21021929  0.65736547     0.26200
C1017       C  0.18222023  0.23168011  0.66615190    -0.40200
C1018       C  0.18634461  0.25704573  0.67545813     0.33200
C1019       C  0.11377212  0.24276304  0.66754021     0.01800
F1020       F  0.10820931  0.19317129  0.64779055    -0.12500
F1021       F  0.21180294  0.27831750  0.68392625    -0.13000
C1022       C  0.11377696  0.26316306  0.64717664     0.16800
C1023       C  0.09026168  0.26461563  0.64456238     0.26200
C1024       C  0.06621978  0.24565697  0.66233634    -0.40100
C1025       C  0.06661232  0.22575200  0.68344254     0.33100
C1026       C  0.09012580  0.22443191  0.68611897     0.14800
F1027       F  0.13610726  0.28086106  0.62841375    -0.12500
F1028       F  0.04406056  0.20716129  0.70119480    -0.13000
F1029       F  0.09070389  0.28378303  0.62329939    -0.15300
F1030       F  0.08966562  0.20488700  0.70661895    -0.13800
F1031       F  0.16864727  0.28506418  0.68652861    -0.13800
F1032       F  0.15056487  0.18567496  0.64720813    -0.15200
loop_ 
_geom_bond_atom_site_label_1 
_geom_bond_atom_site_label_2 
_geom_bond_distance 
_geom_bond_site_symmetry_2 
_ccdc_geom_bond_type 
O1            C4   1.266   1_455  A
O1           Cd6   2.472   1_455  S
C2           O11   1.266       .  A
C2            O7   1.263       .  A
C2          C249   1.468       .  S
O3            C9   1.265       .  A
O3           Cd6   2.453       .  S
C4           O12   1.263       .  A
C4          C977   1.480       .  S
C5           O10   1.264       .  A
C5            O8   1.264       .  A
C5         C1024   1.489       .  S
Cd6          O13   2.483       .  S
Cd6          O12   2.428       .  S
Cd6          O11   2.470       .  S
Cd6           O7   2.478       .  S
Cd6          O10   2.476   1_655  S
Cd6           O8   2.495   1_655  S
C9           O13   1.267       .  A
C9         C1004   1.487       .  S
O14          C17   1.267       .  A
O14         Cd19   2.485       .  S
C15          O24   1.265       .  A
C15          O20   1.266       .  A
C15         C303   1.466       .  S
O16          C22   1.265       .  A
O16         Cd19   2.457       .  S
C17          O25   1.264       .  A
C17         C944   1.483       .  S
C18          O23   1.268       .  A
C18          O21   1.263       .  A
C18         C957   1.480       .  S
Cd19         O26   2.488       .  S
Cd19         O25   2.435       .  S
Cd19         O24   2.458       .  S
Cd19         O20   2.467       .  S
Cd19         O23   2.490       .  S
Cd19         O21   2.429       .  S
C22          O26   1.267       .  A
C22        C1017   1.487       .  S
O27          C30   1.265       .  A
O27         Cd32   2.469       .  S
C28          O37   1.265       .  A
C28          O33   1.263       .  A
C28         C262   1.466       .  S
O29          C35   1.266       .  A
O29         Cd32   2.459       .  S
C30          O38   1.265       .  A
C30         C897   1.485       .  S
C31          O36   1.264       .  A
C31          O34   1.265       .  A
C31         C917   1.482       .  S
Cd32         O39   2.451       .  S
Cd32         O38   2.457       .  S
Cd32         O37   2.478       .  S
Cd32         O33   2.466       .  S
Cd32         O36   2.470       .  S
Cd32         O34   2.458       .  S
C35          O39   1.265       .  A
C35         C964   1.483   1_565  S
O40          C43   1.263       .  A
O40         Cd45   2.451       .  S
C41          O50   1.264       .  A
C41          O46   1.267       .  A
C41         C864   1.487       .  S
O42          C48   1.265       .  A
O42         Cd45   2.466       .  S
C43          O51   1.266       .  A
C43         C236   1.465       .  S
C44          O49   1.263       .  A
C44          O47   1.267       .  A
C44         C924   1.484       .  S
Cd45         O52   2.471       .  S
Cd45         O51   2.486       .  S
Cd45         O50   2.458       .  S
Cd45         O46   2.485       .  S
Cd45         O49   2.447   1_655  S
Cd45         O47   2.491   1_655  S
C48          O52   1.265       .  A
C48         C877   1.485       .  S
O53          C56   1.266       .  A
O53         Cd58   2.479       .  S
C54          O63   1.266       .  A
C54          O59   1.264       .  A
C54         C288   1.470       .  S
O55          C61   1.266       .  A
O55         Cd58   2.483       .  S
C56          O64   1.264       .  A
C56         C817   1.487       .  S
C57          O62   1.264       .  A
C57          O60   1.265       .  A
C57         C837   1.490       .  S
Cd58         O65   2.455       .  S
Cd58         O64   2.456       .  S
Cd58         O63   2.464       .  S
Cd58         O59   2.488       .  S
Cd58         O62   2.477       .  S
Cd58         O60   2.488       .  S
C61          O65   1.264       .  A
C61         C884   1.487       .  S
O66          C69   1.267       .  A
O66         Cd71   2.485       .  S
C67          O76   1.265       .  A
C67          O72   1.265       .  A
C67         C275   1.465       .  S
O68          C74   1.265       .  A
O68         Cd71   2.447       .  S
C69          O77   1.262       .  A
C69         C797   1.481       .  S
C70          O75   1.268   1_545  A
C70          O73   1.263       .  A
C70         C997   1.480       .  S
Cd71         O78   2.482       .  S
Cd71         O77   2.417       .  S
Cd71         O76   2.447       .  S
Cd71         O72   2.477       .  S
Cd71         O75   2.489       .  S
Cd71         O73   2.420   1_565  S
C74          O78   1.267       .  A
C74         C844   1.486       .  S
O79          C82   1.268       .  A
O79         Cd84   2.495       .  S
C80          O89   1.266       .  A
C80          O85   1.264       .  A
C80         C171   1.464       .  S
O81          C87   1.262       .  A
O81         Cd84   2.456       .  S
C82          O90   1.264       .  A
C82         C904   1.485       .  S
C83          O88   1.264   1_545  A
C83          O86   1.265       .  A
C83         C777   1.484       .  S
Cd84         O91   2.491       .  S
Cd84         O90   2.422       .  S
Cd84         O89   2.449       .  S
Cd84         O85   2.471       .  S
Cd84         O88   2.472       .  S
Cd84         O86   2.479   1_565  S
C87          O91   1.264       .  A
C87         C757   1.483       .  S
O92          C95   1.262       .  A
O92         Cd97   2.467       .  S
C93         O102   1.266       .  A
C93          O98   1.267       .  A
C93         C857   1.485       .  S
O94         C100   1.266       .  A
O94         Cd97   2.477   1_455  S
C95         O103   1.265       .  A
C95         C184   1.467   1_655  S
C96         O101   1.266       .  A
C96          O99   1.265       .  A
C96         C737   1.488       .  S
Cd97        O104   2.450   1_655  S
Cd97        O103   2.477       .  S
Cd97        O102   2.439       .  S
Cd97         O98   2.471       .  S
Cd97        O101   2.492       .  S
Cd97         O99   2.469       .  S
C100        O104   1.263       .  A
C100        C764   1.484       .  S
O105        C108   1.265       .  A
O105       Cd110   2.483       .  S
C106        O115   1.265       .  A
C106        O111   1.266       .  A
C106        C824   1.487       .  S
O107        C113   1.264       .  A
O107       Cd110   2.458       .  S
C108        O116   1.264       .  A
C108        C223   1.467       .  S
C109        O114   1.264       .  A
C109        O112   1.263       .  A
C109        C717   1.481       .  S
Cd110       O117   2.468       .  S
Cd110       O116   2.462       .  S
Cd110       O115   2.468       .  S
Cd110       O111   2.478       .  S
Cd110       O114   2.458       .  S
Cd110       O112   2.459       .  S
C113        O117   1.266       .  A
C113        C744   1.486       .  S
O118        C121   1.263       .  A
O118       Cd123   2.470       .  S
C119        O128   1.265       .  A
C119        O124   1.267       .  A
C119        C937   1.482       .  S
O120        C126   1.265       .  A
O120       Cd123   2.496       .  S
C121        O129   1.267       .  A
C121        C212   1.467       .  S
C122        O127   1.265       .  A
C122        O125   1.266       .  A
C122        C784   1.485       .  S
Cd123       O130   2.457       .  S
Cd123       O129   2.470       .  S
Cd123       O128   2.440       .  S
Cd123       O124   2.467       .  S
Cd123       O127   2.457       .  S
Cd123       O125   2.477       .  S
C126        O130   1.261       .  A
C126        C704   1.480       .  S
O131        C134   1.266       .  A
O131       Cd136   2.475       .  S
C132        O141   1.265       .  A
C132        O137   1.263       .  A
C132        C197   1.462       .  S
O133        C139   1.266       .  A
O133       Cd136   2.471   1_455  S
C134        O142   1.263   1_655  A
C134        C984   1.480       .  S
C135        O140   1.263       .  A
C135        O138   1.265       .  A
C135        C684   1.485       .  S
Cd136       O143   2.435   1_655  S
Cd136       O142   2.444   1_655  S
Cd136       O141   2.455   1_655  S
Cd136       O137   2.465   1_655  S
Cd136       O140   2.464       .  S
Cd136       O138   2.480       .  S
C139        O143   1.264       .  A
C139        C697   1.480       .  S
O144        C147   1.267       .  A
O144       Cd149   2.476       .  S
C145        O154   1.263       .  A
C145        O150   1.263       .  A
C145        C158   1.462       .  S
O146        C152   1.264   1_565  A
O146       Cd149   2.449       .  S
C147        O155   1.265       .  A
C147        C804   1.485       .  S
C148        O153   1.265       .  A
C148        O151   1.263       .  A
C148        C724   1.478       .  S
Cd149       O156   2.477   1_565  S
Cd149       O155   2.449       .  S
Cd149       O154   2.467       .  S
Cd149       O150   2.466       .  S
Cd149       O153   2.485       .  S
Cd149       O151   2.437       .  S
C152        O156   1.266       .  A
C152        C677   1.483       .  S
O157        C160   1.265       .  A
O157       Cd162   2.488       .  S
C158        O167   1.264       .  A
C158        O163   1.264       .  A
O159        C165   1.264       .  A
O159       Cd162   2.469       .  S
C160        O168   1.265       .  A
C160        C657   1.488       .  S
C161        O166   1.264       .  A
C161        O164   1.267       .  A
C161        C617   1.486       .  S
Cd162       O169   2.478       .  S
Cd162       O168   2.460       .  S
Cd162       O167   2.463       .  S
Cd162       O163   2.462       .  S
Cd162       O166   2.443       .  S
Cd162       O164   2.487       .  S
C165        O169   1.265       .  A
C165        C644   1.487       .  S
O170        C173   1.265       .  A
O170       Cd175   2.489       .  S
C171        O180   1.262       .  A
C171        O176   1.266       .  A
O172        C178   1.267       .  A
O172       Cd175   2.481       .  S
C173        O181   1.264       .  A
C173        C664   1.484       .  S
C174        O179   1.265       .  A
C174        O177   1.265       .  A
C174        C597   1.488       .  S
Cd175       O182   2.453       .  S
Cd175       O181   2.451       .  S
Cd175       O180   2.451       .  S
Cd175       O176   2.482       .  S
Cd175       O179   2.483       .  S
Cd175       O177   2.479       .  S
C178        O182   1.265       .  A
C178        C577   1.486       .  S
O183        C186   1.266       .  A
O183       Cd188   2.500       .  S
C184        O193   1.264       .  A
C184        O189   1.267       .  A
O185        C191   1.264       .  A
O185       Cd188   2.467       .  S
C186        O194   1.262       .  A
C186        C557   1.488       .  S
C187        O192   1.265       .  A
C187        O190   1.266       .  A
C187        C537   1.484       .  S
Cd188       O195   2.485       .  S
Cd188       O194   2.452       .  S
Cd188       O193   2.464       .  S
Cd188       O189   2.470       .  S
Cd188       O192   2.448       .  S
Cd188       O190   2.464       .  S
C191        O195   1.265       .  A
C191        C604   1.483       .  S
O196        C199   1.265       .  A
O196       Cd201   2.454       .  S
C197        O206   1.261       .  A
C197        O202   1.265       .  A
O198        C204   1.267       .  A
O198       Cd201   2.460       .  S
C199        O207   1.265       .  A
C199        C564   1.482       .  S
C200        O205   1.264       .  A
C200        O203   1.263       .  A
C200        C517   1.485       .  S
Cd201       O208   2.455       .  S
Cd201       O207   2.471       .  S
Cd201       O206   2.450       .  S
Cd201       O202   2.477       .  S
Cd201       O205   2.470       .  S
Cd201       O203   2.465       .  S
C204        O208   1.265       .  A
C204        C504   1.481       .  S
O209        C212   1.268       .  A
O209       Cd214   2.480       .  S
C210        O219   1.266       .  A
C210        O215   1.261       .  A
C210        C477   1.487       .  S
O211        C217   1.263       .  A
O211       Cd214   2.442       .  S
C212        O220   1.262       .  A
C213        O218   1.264       .  A
C213        O216   1.267       .  A
C213        C524   1.486       .  S
Cd214       O221   2.493       .  S
Cd214       O220   2.466       .  S
Cd214       O219   2.512       .  S
Cd214       O215   2.444       .  S
Cd214       O218   2.450       .  S
Cd214       O216   2.490       .  S
C217        O221   1.267       .  A
C217        C464   1.485       .  S
O222        C225   1.265       .  A
O222       Cd227   2.463       .  S
C223        O232   1.263       .  A
C223        O228   1.265       .  A
O224        C230   1.267       .  A
O224       Cd227   2.492       .  S
C225        O233   1.265       .  A
C225        C484   1.481       .  S
C226        O231   1.266       .  A
C226        O229   1.264       .  A
C226        C637   1.489       .  S
Cd227       O234   2.462       .  S
Cd227       O233   2.482       .  S
Cd227       O232   2.463       .  S
Cd227       O228   2.486       .  S
Cd227       O231   2.488       .  S
Cd227       O229   2.476       .  S
C230        O234   1.265       .  A
C230        C437   1.491       .  S
O235        C238   1.265       .  A
O235       Cd240   2.484       .  S
C236        O245   1.264       .  A
C236        O241   1.265       .  A
O237        C243   1.266       .  A
O237       Cd240   2.481       .  S
C238        O246   1.265       .  A
C238        C544   1.489       .  S
C239        O244   1.262       .  A
C239        O242   1.265       .  A
C239        C397   1.487       .  S
Cd240       O247   2.463       .  S
Cd240       O246   2.477       .  S
Cd240       O245   2.450       .  S
Cd240       O241   2.483       .  S
Cd240       O244   2.466       .  S
Cd240       O242   2.482       .  S
C243        O247   1.265       .  A
C243        C417   1.487       .  S
O248        C251   1.266       .  A
O248       Cd253   2.497       .  S
C249        O258   1.262       .  A
C249        O254   1.266       .  A
O250        C256   1.265       .  A
O250       Cd253   2.458       .  S
C251        O259   1.263       .  A
C251        C424   1.482       .  S
C252        O257   1.264       .  A
C252        O255   1.265       .  A
C252        C377   1.486       .  S
Cd253       O260   2.476       .  S
Cd253       O259   2.441       .  S
Cd253       O258   2.466       .  S
Cd253       O254   2.487       .  S
Cd253       O257   2.455       .  S
Cd253       O255   2.481       .  S
C256        O260   1.267       .  A
C256        C497   1.486       .  S
O261        C264   1.266   1_565  A
O261       Cd266   2.485   1_565  S
C262        O271   1.264       .  A
C262        O267   1.265   1_565  A
O263        C269   1.266   1_545  A
O263       Cd266   2.471       .  S
C264        O272   1.264       .  A
C264        C364   1.485       .  S
C265        O270   1.264       .  A
C265        O268   1.266       .  A
C265        C337   1.488       .  S
Cd266       O273   2.466   1_545  S
Cd266       O272   2.464       .  S
Cd266       O271   2.466   1_545  S
Cd266       O267   2.469       .  S
Cd266       O270   2.458       .  S
Cd266       O268   2.485       .  S
C269        O273   1.266       .  A
C269        C584   1.487       .  S
O274        C277   1.263   1_565  A
O274       Cd279   2.468   1_565  S
C275        O284   1.263       .  A
C275        O280   1.266       .  A
O276        C282   1.266       .  A
O276       Cd279   2.466       .  S
C277        O285   1.262       .  A
C277        C357   1.482       .  S
C278        O283   1.265   1_565  A
C278        O281   1.265       .  A
C278        C624   1.489       .  S
Cd279       O286   2.474       .  S
Cd279       O285   2.462       .  S
Cd279       O284   2.449   1_545  S
Cd279       O280   2.487   1_545  S
Cd279       O283   2.468       .  S
Cd279       O281   2.479   1_545  S
C282        O286   1.266       .  A
C282        C384   1.485       .  S
O287        C290   1.267       .  A
O287       Cd292   2.500       .  S
C288        O297   1.261       .  A
C288        O293   1.266       .  A
O289        C295   1.265       .  A
O289       Cd292   2.476       .  S
C290        O298   1.264       .  A
C290        C317   1.489       .  S
C291        O296   1.265       .  A
C291        O294   1.266       .  A
C291        C404   1.489       .  S
Cd292       O299   2.465       .  S
Cd292       O298   2.464       .  S
Cd292       O297   2.465       .  S
Cd292       O293   2.507       .  S
Cd292       O296   2.478       .  S
Cd292       O294   2.474       .  S
C295        O299   1.266       .  A
C295        C444   1.485       .  S
O300        C303   1.265       .  A
O300       Cd305   2.471       .  S
C301        O310   1.264       .  A
C301        O306   1.265       .  A
C301        C324   1.486       .  S
O302        C308   1.264       .  A
O302       Cd305   2.468       .  S
C303        O311   1.265       .  A
C304        O309   1.264       .  A
C304        O307   1.265       .  A
C304        C344   1.487       .  S
Cd305       O312   2.470       .  S
Cd305       O311   2.469       .  S
Cd305       O310   2.457       .  S
Cd305       O306   2.481       .  S
Cd305       O309   2.469       .  S
Cd305       O307   2.483       .  S
C308        O312   1.265       .  A
C308        C457   1.485       .  S
C313        C314   1.405       .  A
C313        C318   1.402       .  A
C313        F331   1.358       .  S
C314        C319   1.484       .  S
C314        C315   1.404       .  A
C315        C316   1.400       .  A
C315        F320   1.358       .  S
C316        C317   1.411       .  A
C316        F332   1.358       .  S
C317        C318   1.411       .  A
C318        F321   1.357       .  S
C319        C322   1.405       .  A
C319        C326   1.405       .  A
C322        C323   1.402       .  A
C322        F327   1.358       .  S
C323        C324   1.411       .  A
C323        F329   1.358       .  S
C324        C325   1.410       .  A
C325        C326   1.397       .  A
C325        F328   1.358       .  S
C326        F330   1.358       .  S
C333        C334   1.404       .  A
C333        C338   1.402       .  A
C333        F351   1.358       .  S
C334        C339   1.480       .  S
C334        C335   1.402       .  A
C335        C336   1.397       .  A
C335        F340   1.358       .  S
C336        C337   1.411       .  A
C336        F352   1.358       .  S
C337        C338   1.412       .  A
C338        F341   1.358       .  S
C339        C342   1.403       .  A
C339        C346   1.403       .  A
C342        C343   1.401       .  A
C342        F347   1.358       .  S
C343        C344   1.411       .  A
C343        F349   1.358       .  S
C344        C345   1.411       .  A
C345        C346   1.399       .  A
C345        F348   1.358       .  S
C346        F350   1.358       .  S
C353        C354   1.405       .  A
C353        C358   1.398       .  A
C353        F371   1.358       .  S
C354        C359   1.482       .  S
C354        C355   1.405   1_545  A
C355        C356   1.399       .  A
C355        F360   1.358       .  S
C356        C357   1.410   1_565  A
C356        F372   1.358       .  S
C357        C358   1.409       .  A
C358        F361   1.358       .  S
C359        C362   1.405   1_545  A
C359        C366   1.405       .  A
C362        C363   1.401       .  A
C362        F367   1.358       .  S
C363        C364   1.410   1_565  A
C363        F369   1.357       .  S
C364        C365   1.410       .  A
C365        C366   1.397       .  A
C365        F368   1.358       .  S
C366        F370   1.358       .  S
C373        C374   1.403       .  A
C373        C378   1.397       .  A
C373        F391   1.358       .  S
C374        C379   1.481       .  S
C374        C375   1.405       .  A
C375        C376   1.401       .  A
C375        F380   1.358       .  S
C376        C377   1.411       .  A
C376        F392   1.358       .  S
C377        C378   1.410       .  A
C378        F381   1.358       .  S
C379        C382   1.404       .  A
C379        C386   1.404       .  A
C382        C383   1.399       .  A
C382        F387   1.358       .  S
C383        C384   1.410       .  A
C383        F389   1.358       .  S
C384        C385   1.410       .  A
C385        C386   1.400       .  A
C385        F388   1.358       .  S
C386        F390   1.358       .  S
C393        C394   1.405       .  A
C393        C398   1.400       .  A
C393        F411   1.358       .  S
C394        C399   1.483       .  S
C394        C395   1.404       .  A
C395        C396   1.399       .  A
C395        F400   1.357       .  S
C396        C397   1.410       .  A
C396        F412   1.357       .  S
C397        C398   1.412       .  A
C398        F401   1.358       .  S
C399        C402   1.403       .  A
C399        C406   1.405       .  A
C402        C403   1.399       .  A
C402        F407   1.358       .  S
C403        C404   1.410       .  A
C403        F409   1.357       .  S
C404        C405   1.412       .  A
C405        C406   1.402       .  A
C405        F408   1.358       .  S
C406        F410   1.358       .  S
C413        C414   1.404       .  A
C413        C418   1.397       .  A
C413        F431   1.358       .  S
C414        C419   1.484       .  S
C414        C415   1.406       .  A
C415        C416   1.401       .  A
C415        F420   1.358       .  S
C416        C417   1.411       .  A
C416        F432   1.358       .  S
C417        C418   1.410       .  A
C418        F421   1.357       .  S
C419        C422   1.405       .  A
C419        C426   1.407       .  A
C422        C423   1.396       .  A
C422        F427   1.358       .  S
C423        C424   1.408       .  A
C423        F429   1.358       .  S
C424        C425   1.409       .  A
C425        C426   1.402       .  A
C425        F428   1.358       .  S
C426        F430   1.358       .  S
C433        C434   1.406       .  A
C433        C438   1.401   1_556  A
C433        F451   1.358       .  S
C434        C439   1.487       .  S
C434        C435   1.405   1_556  A
C435        C436   1.401       .  A
C435        F440   1.358       .  S
C436        C437   1.412       .  A
C436        F452   1.358       .  S
C437        C438   1.411       .  A
C438        F441   1.358       .  S
C439        C442   1.405       .  A
C439        C446   1.407       .  A
C442        C443   1.398       .  A
C442        F447   1.358       .  S
C443        C444   1.408       .  A
C443        F449   1.358       .  S
C444        C445   1.410       .  A
C445        C446   1.403       .  A
C445        F448   1.358       .  S
C446        F450   1.358       .  S
C453        C454   1.404       .  A
C453        C458   1.398       .  A
C453        F471   1.358       .  S
C454        C459   1.480       .  S
C454        C455   1.403       .  A
C455        C456   1.400       .  A
C455        F460   1.358       .  S
C456        C457   1.411       .  A
C456        F472   1.358       .  S
C457        C458   1.410       .  A
C458        F461   1.358       .  S
C459        C462   1.402       .  A
C459        C466   1.405   1_556  A
C462        C463   1.396   1_556  A
C462        F467   1.358       .  S
C463        C464   1.411       .  A
C463        F469   1.358       .  S
C464        C465   1.410       .  A
C465        C466   1.401       .  A
C465        F468   1.358       .  S
C466        F470   1.358   1_554  S
C473        C474   1.404       .  A
C473        C478   1.397       .  A
C473        F491   1.358       .  S
C474        C479   1.486       .  S
C474        C475   1.407       .  A
C475        C476   1.403       .  A
C475        F480   1.358       .  S
C476        C477   1.410       .  A
C476        F492   1.358       .  S
C477        C478   1.411       .  A
C478        F481   1.358       .  S
C479        C482   1.408       .  A
C479        C486   1.406       .  A
C482        C483   1.402       .  A
C482        F487   1.358       .  S
C483        C484   1.408       .  A
C483        F489   1.358       .  S
C484        C485   1.407       .  A
C485        C486   1.397       .  A
C485        F488   1.358       .  S
C486        F490   1.358       .  S
C493        C494   1.406   1_455  A
C493        C498   1.400   1_455  A
C493        F511   1.358       .  S
C494        C499   1.485   1_655  S
C494        C495   1.405       .  A
C495        C496   1.399       .  A
C495        F500   1.358       .  S
C496        C497   1.411       .  A
C496        F512   1.358       .  S
C497        C498   1.410       .  A
C498        F501   1.357   1_655  S
C499        C502   1.406       .  A
C499        C506   1.407   1_455  A
C502        C503   1.398       .  A
C502        F507   1.357       .  S
C503        C504   1.407   1_556  A
C503        F509   1.358   1_556  S
C504        C505   1.409       .  A
C505        C506   1.399   1_454  A
C505        F508   1.358       .  S
C506        F510   1.358       .  S
C513        C514   1.405       .  A
C513        C518   1.399       .  A
C513        F531   1.358       .  S
C514        C519   1.484       .  S
C514        C515   1.405       .  A
C515        C516   1.398       .  A
C515        F520   1.358       .  S
C516        C517   1.410       .  A
C516        F532   1.358       .  S
C517        C518   1.410       .  A
C518        F521   1.358       .  S
C519        C522   1.406       .  A
C519        C526   1.404       .  A
C522        C523   1.401       .  A
C522        F527   1.358       .  S
C523        C524   1.410       .  A
C523        F529   1.358       .  S
C524        C525   1.410       .  A
C525        C526   1.398       .  A
C525        F528   1.358       .  S
C526        F530   1.358       .  S
C533        C534   1.404   1_455  A
C533        C538   1.398   1_556  A
C533        F551   1.358       .  S
C534        C539   1.483       .  S
C534        C535   1.405       .  A
C535        C536   1.399   1_556  A
C535        F540   1.358       .  S
C536        C537   1.410   1_655  A
C536        F552   1.358       .  S
C537        C538   1.410       .  A
C538        F541   1.358       .  S
C539        C542   1.404       .  A
C539        C546   1.404       .  A
C542        C543   1.400       .  A
C542        F547   1.358       .  S
C543        C544   1.411       .  A
C543        F549   1.357       .  S
C544        C545   1.412       .  A
C545        C546   1.400       .  A
C545        F548   1.358       .  S
C546        F550   1.358       .  S
C553        C554   1.403       .  A
C553        C558   1.398       .  A
C553        F571   1.358       .  S
C554        C559   1.481       .  S
C554        C555   1.404       .  A
C555        C556   1.401       .  A
C555        F560   1.358       .  S
C556        C557   1.411       .  A
C556        F572   1.357       .  S
C557        C558   1.412       .  A
C558        F561   1.358       .  S
C559        C562   1.405       .  A
C559        C566   1.403       .  A
C562        C563   1.401       .  A
C562        F567   1.358       .  S
C563        C564   1.410       .  A
C563        F569   1.358       .  S
C564        C565   1.409       .  A
C565        C566   1.396       .  A
C565        F568   1.358       .  S
C566        F570   1.358       .  S
C573        C574   1.404       .  A
C573        C578   1.398   1_556  A
C573        F591   1.358       .  S
C574        C579   1.484       .  S
C574        C575   1.406       .  A
C575        C576   1.401   1_556  A
C575        F580   1.358       .  S
C576        C577   1.410       .  A
C576        F592   1.358       .  S
C577        C578   1.410       .  A
C578        F581   1.358       .  S
C579        C582   1.405       .  A
C579        C586   1.405       .  A
C582        C583   1.401   1_565  A
C582        F587   1.358   1_565  S
C583        C584   1.411   1_545  A
C583        F589   1.358       .  S
C584        C585   1.410       .  A
C585        C586   1.399       .  A
C585        F588   1.358       .  S
C586        F590   1.358       .  S
C593        C594   1.404       .  A
C593        C598   1.400       .  A
C593        F611   1.358       .  S
C594        C599   1.485       .  S
C594        C595   1.406       .  A
C595        C596   1.401       .  A
C595        F600   1.358       .  S
C596        C597   1.410       .  A
C596        F612   1.358       .  S
C597        C598   1.410       .  A
C598        F601   1.357       .  S
C599        C602   1.406       .  A
C599        C606   1.406       .  A
C602        C603   1.401       .  A
C602        F607   1.358       .  S
C603        C604   1.409       .  A
C603        F609   1.358       .  S
C604        C605   1.408       .  A
C605        C606   1.399       .  A
C605        F608   1.358       .  S
C606        F610   1.358       .  S
C613        C614   1.405       .  A
C613        C618   1.397   1_556  A
C613        F631   1.358       .  S
C614        C619   1.486       .  S
C614        C615   1.407       .  A
C615        C616   1.401   1_556  A
C615        F620   1.358       .  S
C616        C617   1.410       .  A
C616        F632   1.358       .  S
C617        C618   1.410       .  A
C618        F621   1.358       .  S
C619        C622   1.406       .  A
C619        C626   1.405       .  A
C622        C623   1.400       .  A
C622        F627   1.358       .  S
C623        C624   1.411       .  A
C623        F629   1.358       .  S
C624        C625   1.411       .  A
C625        C626   1.400       .  A
C625        F628   1.358   1_565  S
C626        F630   1.358   1_565  S
C633        C634   1.406       .  A
C633        C638   1.400       .  A
C633        F651   1.358       .  S
C634        C639   1.487       .  S
C634        C635   1.405       .  A
C635        C636   1.401       .  A
C635        F640   1.358       .  S
C636        C637   1.411       .  A
C636        F652   1.358       .  S
C637        C638   1.410       .  A
C638        F641   1.358       .  S
C639        C642   1.406       .  A
C639        C646   1.406       .  A
C642        C643   1.400       .  A
C642        F647   1.358       .  S
C643        C644   1.410       .  A
C643        F649   1.358       .  S
C644        C645   1.410       .  A
C645        C646   1.400       .  A
C645        F648   1.358       .  S
C646        F650   1.358       .  S
C653        C654   1.406       .  A
C653        C658   1.404       .  A
C653        F671   1.358       .  S
C654        C659   1.485       .  S
C654        C655   1.405       .  A
C655        C656   1.396       .  A
C655        F660   1.358       .  S
C656        C657   1.409       .  A
C656        F672   1.358       .  S
C657        C658   1.412       .  A
C658        F661   1.358       .  S
C659        C662   1.406       .  A
C659        C666   1.405       .  A
C662        C663   1.403       .  A
C662        F667   1.358       .  S
C663        C664   1.410       .  A
C663        F669   1.358       .  S
C664        C665   1.408       .  A
C665        C666   1.396       .  A
C665        F668   1.358       .  S
C666        F670   1.358       .  S
C673        C674   1.403       .  A
C673        C678   1.401       .  A
C673        F691   1.358       .  S
C674        C679   1.478       .  S
C674        C675   1.403       .  A
C675        C676   1.397       .  A
C675        F680   1.358       .  S
C676        C677   1.410       .  A
C676        F692   1.358       .  S
C677        C678   1.411       .  A
C678        F681   1.358       .  S
C679        C682   1.403       .  A
C679        C686   1.403       .  A
C682        C683   1.399       .  A
C682        F687   1.358       .  S
C683        C684   1.410       .  A
C683        F689   1.357       .  S
C684        C685   1.411       .  A
C685        C686   1.399       .  A
C685        F688   1.358       .  S
C686        F690   1.358       .  S
C693        C694   1.403       .  A
C693        C698   1.396       .  A
C693        F711   1.358       .  S
C694        C699   1.478       .  S
C694        C695   1.404       .  A
C695        C696   1.400       .  A
C695        F700   1.358       .  S
C696        C697   1.410       .  A
C696        F712   1.358       .  S
C697        C698   1.410       .  A
C698        F701   1.358       .  S
C699        C702   1.403       .  A
C699        C706   1.405       .  A
C702        C703   1.398       .  A
C702        F707   1.358       .  S
C703        C704   1.409       .  A
C703        F709   1.358       .  S
C704        C705   1.408       .  A
C705        C706   1.399       .  A
C705        F708   1.358       .  S
C706        F710   1.358       .  S
C713        C714   1.403       .  A
C713        C718   1.398       .  A
C713        F731   1.358       .  S
C714        C719   1.476       .  S
C714        C715   1.403       .  A
C715        C716   1.396       .  A
C715        F720   1.358       .  S
C716        C717   1.409       .  A
C716        F732   1.358       .  S
C717        C718   1.411       .  A
C718        F721   1.358       .  S
C719        C722   1.403       .  A
C719        C726   1.404       .  A
C722        C723   1.393       .  A
C722        F727   1.358       .  S
C723        C724   1.408       .  A
C723        F729   1.358       .  S
C724        C725   1.409       .  A
C725        C726   1.401       .  A
C725        F728   1.358       .  S
C726        F730   1.358       .  S
C733        C734   1.405       .  A
C733        C738   1.401       .  A
C733        F751   1.358       .  S
C734        C739   1.483       .  S
C734        C735   1.403       .  A
C735        C736   1.400       .  A
C735        F740   1.358       .  S
C736        C737   1.410       .  A
C736        F752   1.357       .  S
C737        C738   1.411       .  A
C738        F741   1.358       .  S
C739        C742   1.405       .  A
C739        C746   1.404       .  A
C742        C743   1.399       .  A
C742        F747   1.358       .  S
C743        C744   1.411       .  A
C743        F749   1.358       .  S
C744        C745   1.410       .  A
C745        C746   1.400       .  A
C745        F748   1.358       .  S
C746        F750   1.357       .  S
C753        C754   1.403       .  A
C753        C758   1.402       .  A
C753        F771   1.358       .  S
C754        C759   1.473       .  S
C754        C755   1.401       .  A
C755        C756   1.395       .  A
C755        F760   1.358       .  S
C756        C757   1.409       .  A
C756        F772   1.358       .  S
C757        C758   1.412       .  A
C758        F761   1.358       .  S
C759        C762   1.401       .  A
C759        C766   1.402       .  A
C762        C763   1.398       .  A
C762        F767   1.358       .  S
C763        C764   1.412       .  A
C763        F769   1.358       .  S
C764        C765   1.410       .  A
C765        C766   1.399       .  A
C765        F768   1.358       .  S
C766        F770   1.358       .  S
C773        C774   1.405       .  A
C773        C778   1.400       .  A
C773        F791   1.358       .  S
C774        C779   1.483       .  S
C774        C775   1.405       .  A
C775        C776   1.400       .  A
C775        F780   1.358       .  S
C776        C777   1.409       .  A
C776        F792   1.358       .  S
C777        C778   1.409       .  A
C778        F781   1.358       .  S
C779        C782   1.405       .  A
C779        C786   1.404       .  A
C782        C783   1.402       .  A
C782        F787   1.358       .  S
C783        C784   1.410       .  A
C783        F789   1.358       .  S
C784        C785   1.409       .  A
C785        C786   1.397       .  A
C785        F788   1.358       .  S
C786        F790   1.358       .  S
C793        C794   1.404       .  A
C793        C798   1.400       .  A
C793        F811   1.357       .  S
C794        C799   1.476       .  S
C794        C795   1.402       .  A
C795        C796   1.394       .  A
C795        F800   1.358       .  S
C796        C797   1.411       .  A
C796        F812   1.358       .  S
C797        C798   1.410       .  A
C798        F801   1.358       .  S
C799        C802   1.404       .  A
C799        C806   1.401       .  A
C802        C803   1.399       .  A
C802        F807   1.358       .  S
C803        C804   1.410       .  A
C803        F809   1.358       .  S
C804        C805   1.412       .  A
C805        C806   1.397       .  A
C805        F808   1.358       .  S
C806        F810   1.358       .  S
C813        C814   1.404       .  A
C813        C818   1.400       .  A
C813        F831   1.358       .  S
C814        C819   1.481       .  S
C814        C815   1.403       .  A
C815        C816   1.399       .  A
C815        F820   1.358       .  S
C816        C817   1.412       .  A
C816        F832   1.358       .  S
C817        C818   1.411       .  A
C818        F821   1.358       .  S
C819        C822   1.403       .  A
C819        C826   1.404       .  A
C822        C823   1.399       .  A
C822        F827   1.358       .  S
C823        C824   1.411       .  A
C823        F829   1.358       .  S
C824        C825   1.411       .  A
C825        C826   1.401       .  A
C825        F828   1.358       .  S
C826        F830   1.358       .  S
C833        C834   1.404       .  A
C833        C838   1.400       .  A
C833        F851   1.358       .  S
C834        C839   1.484       .  S
C834        C835   1.405       .  A
C835        C836   1.401       .  A
C835        F840   1.358       .  S
C836        C837   1.411       .  A
C836        F852   1.358       .  S
C837        C838   1.411       .  A
C838        F841   1.357       .  S
C839        C842   1.404       .  A
C839        C846   1.405       .  A
C842        C843   1.398       .  A
C842        F847   1.358       .  S
C843        C844   1.411       .  A
C843        F849   1.358       .  S
C844        C845   1.410       .  A
C845        C846   1.402       .  A
C845        F848   1.358       .  S
C846        F850   1.358       .  S
C853        C854   1.402       .  A
C853        C858   1.402       .  A
C853        F871   1.357       .  S
C854        C859   1.474       .  S
C854        C855   1.401       .  A
C855        C856   1.395       .  A
C855        F860   1.358       .  S
C856        C857   1.410       .  A
C856        F872   1.358   1_655  S
C857        C858   1.412       .  A
C858        F861   1.358       .  S
C859        C862   1.401   1_655  A
C859        C866   1.401       .  A
C862        C863   1.400       .  A
C862        F867   1.358       .  S
C863        C864   1.411   1_455  A
C863        F869   1.357       .  S
C864        C865   1.412       .  A
C865        C866   1.399       .  A
C865        F868   1.358       .  S
C866        F870   1.358       .  S
C873        C874   1.403       .  A
C873        C878   1.399       .  A
C873        F891   1.358       .  S
C874        C879   1.479       .  S
C874        C875   1.404       .  A
C875        C876   1.399       .  A
C875        F880   1.358       .  S
C876        C877   1.410       .  A
C876        F892   1.358       .  S
C877        C878   1.411       .  A
C878        F881   1.358       .  S
C879        C882   1.403       .  A
C879        C886   1.403       .  A
C882        C883   1.401       .  A
C882        F887   1.358       .  S
C883        C884   1.411       .  A
C883        F889   1.357       .  S
C884        C885   1.411       .  A
C885        C886   1.397       .  A
C885        F888   1.358       .  S
C886        F890   1.358       .  S
C893        C894   1.401       .  A
C893        C898   1.400       .  A
C893        F911   1.358       .  S
C894        C899   1.473       .  S
C894        C895   1.401       .  A
C895        C896   1.397       .  A
C895        F900   1.358   1_565  S
C896        C897   1.411       .  A
C896        F912   1.358   1_565  S
C897        C898   1.412       .  A
C898        F901   1.358       .  S
C899        C902   1.399       .  A
C899        C906   1.403       .  A
C902        C903   1.394       .  A
C902        F907   1.358       .  S
C903        C904   1.411       .  A
C903        F909   1.358       .  S
C904        C905   1.412       .  A
C905        C906   1.403       .  A
C905        F908   1.358       .  S
C906        F910   1.358       .  S
C913        C914   1.403       .  A
C913        C918   1.400       .  A
C913        F931   1.358       .  S
C914        C919   1.475       .  S
C914        C915   1.401       .  A
C915        C916   1.397       .  A
C915        F920   1.358       .  S
C916        C917   1.409       .  A
C916        F932   1.358       .  S
C917        C918   1.411       .  A
C918        F921   1.358       .  S
C919        C922   1.402       .  A
C919        C926   1.403       .  A
C922        C923   1.397       .  A
C922        F927   1.358       .  S
C923        C924   1.411       .  A
C923        F929   1.358       .  S
C924        C925   1.410       .  A
C925        C926   1.401       .  A
C925        F928   1.357       .  S
C926        F930   1.358       .  S
C933        C934   1.404       .  A
C933        C938   1.399       .  A
C933        F951   1.358       .  S
C934        C939   1.480       .  S
C934        C935   1.405       .  A
C935        C936   1.397       .  A
C935        F940   1.358       .  S
C936        C937   1.410       .  A
C936        F952   1.358       .  S
C937        C938   1.410       .  A
C938        F941   1.357       .  S
C939        C942   1.403       .  A
C939        C946   1.405       .  A
C942        C943   1.395       .  A
C942        F947   1.358       .  S
C943        C944   1.410       .  A
C943        F949   1.358       .  S
C944        C945   1.411       .  A
C945        C946   1.401       .  A
C945        F948   1.358       .  S
C946        F950   1.358       .  S
C953        C954   1.405       .  A
C953        C958   1.401       .  A
C953        F971   1.358       .  S
C954        C959   1.477       .  S
C954        C955   1.403       .  A
C955        C956   1.395       .  A
C955        F960   1.358       .  S
C956        C957   1.409       .  A
C956        F972   1.358       .  S
C957        C958   1.408       .  A
C958        F961   1.357       .  S
C959        C962   1.403       .  A
C959        C966   1.403       .  A
C962        C963   1.398       .  A
C962        F967   1.358       .  S
C963        C964   1.410       .  A
C963        F969   1.358       .  S
C964        C965   1.411       .  A
C965        C966   1.397       .  A
C965        F968   1.358       .  S
C966        F970   1.358       .  S
C973        C974   1.404   1_455  A
C973        C978   1.399       .  A
C973        F991   1.358       .  S
C974        C979   1.476       .  S
C974        C975   1.402       .  A
C975        C976   1.394       .  A
C975        F980   1.358       .  S
C976        C977   1.410       .  A
C976        F992   1.358       .  S
C977        C978   1.410   1_655  A
C978        F981   1.358       .  S
C979        C982   1.403   1_655  A
C979        C986   1.404       .  A
C982        C983   1.396       .  A
C982        F987   1.358       .  S
C983        C984   1.410   1_455  A
C983        F989   1.358       .  S
C984        C985   1.409       .  A
C985        C986   1.398       .  A
C985        F988   1.357       .  S
C986        F990   1.358       .  S
C993        C994   1.405       .  A
C993        C998   1.401       .  A
C993       F1011   1.358       .  S
C994        C999   1.479       .  S
C994        C995   1.403       .  A
C995        C996   1.396       .  A
C995       F1000   1.358       .  S
C996        C997   1.410       .  A
C996       F1012   1.358       .  S
C997        C998   1.408       .  A
C998       F1001   1.358       .  S
C999       C1002   1.404       .  A
C999       C1006   1.402       .  A
C1002      C1003   1.400       .  A
C1002      F1007   1.358       .  S
C1003      C1004   1.411       .  A
C1003      F1009   1.358       .  S
C1004      C1005   1.412       .  A
C1005      C1006   1.398       .  A
C1005      F1008   1.358       .  S
C1006      F1010   1.358       .  S
C1013      C1014   1.407       .  A
C1013      C1018   1.404       .  A
C1013      F1031   1.358       .  S
C1014      C1019   1.489       .  S
C1014      C1015   1.406       .  A
C1015      C1016   1.397       .  A
C1015      F1020   1.358       .  S
C1016      C1017   1.409       .  A
C1016      F1032   1.358       .  S
C1017      C1018   1.410       .  A
C1018      F1021   1.358       .  S
C1019      C1022   1.407       .  A
C1019      C1026   1.406       .  A
C1022      C1023   1.403       .  A
C1022      F1027   1.358       .  S
C1023      C1024   1.412       .  A
C1023      F1029   1.358       .  S
C1024      C1025   1.409       .  A
C1025      C1026   1.399       .  A
C1025      F1028   1.358       .  S
C1026      F1030   1.358       .  S
