geometry optimzed in LAMMPS
_audit_creation_date              2020-11-30 
_audit_creation_method            'lammps2cif' 
_symmetry_space_group_name_H-M    'P1' 
_symmetry_Int_Tables_number       1 
_symmetry_cell_setting            triclinic 
loop_ 
_symmetry_equiv_pos_as_xyz 
  x,y,z 
_cell_length_a                    35.28489099 
_cell_length_b                    43.437154452878914 
_cell_length_c                    36.27014905048577 
_cell_angle_alpha                 90.76025024753613 
_cell_angle_beta                  89.92998678655842 
_cell_angle_gamma                 89.41931010244889 
loop_ 
_atom_site_label 
_atom_site_type_symbol 
_atom_site_fract_x 
_atom_site_fract_y 
_atom_site_fract_z 
_atom_site_charge 
Zn1        Zn  0.03442991  0.22555662  0.03540256     1.49700
Zn2        Zn  0.46922494  0.22252026  0.47198942     1.49400
Zn3        Zn  0.46684929  0.27559258  0.03569432     1.49100
Zn4        Zn  0.02965436  0.27546160  0.47158026     1.49500
O5          O  0.00089378  0.24891911  0.00262689    -1.82200
O6          O  0.03163004  0.18011011  0.02288908    -0.72900
O7          O  0.41300987  0.22853657  0.48343598    -0.72700
O8          O  0.47554574  0.26930934  0.09062954    -0.72200
O9          O  0.48418405  0.17786892  0.48249088    -0.72900
O10         O  0.02169574  0.23141513  0.08966077    -0.72500
O11         O  0.41276469  0.26529022  0.02525392    -0.73100
O12         O  0.01798116  0.32017574  0.48372582    -0.72500
O13         O  0.47774362  0.23030520  0.41638686    -0.73200
O14         O  0.47368767  0.32063175  0.02617464    -0.72600
O15         O  0.02108600  0.26677549  0.41618208    -0.73100
O16         O  0.08531352  0.26975035  0.48225846    -0.73000
O17         O  0.08855366  0.23897003  0.02944064    -0.72800
C18         C  0.01141997  0.16394317  0.00107404     0.79000
C19         C  0.39648836  0.24560060  0.00462184     0.79500
C20         C  0.99874279  0.24907782  0.10719011     0.78500
C21         C  0.99674718  0.33386309  0.00473141     0.78800
C22         C  0.00086113  0.24725185  0.39858419     0.80000
C23         C  0.10500905  0.25574074  0.00595112     0.79000
Zn24       Zn  0.03401037  0.27086235  0.28497009     1.49700
Zn25       Zn  0.46776635  0.22371679  0.28423890     1.49400
Zn26       Zn  0.46747068  0.27694122  0.22180434     1.49100
Zn27       Zn  0.03230971  0.22171528  0.21803412     1.49500
O28         O  0.49912006  0.24988137  0.25282594    -1.82200
O29         O  0.02364876  0.26450180  0.34016929    -0.72900
O30         O  0.41303554  0.23303030  0.27369011    -0.72700
O31         O  0.47603625  0.32150555  0.23510307    -0.72200
O32         O  0.47680526  0.23076643  0.33991140    -0.72900
O33         O  0.02773808  0.31589859  0.27411367    -0.72500
O34         O  0.41249746  0.26882402  0.23024748    -0.73100
O35         O  0.02138164  0.23035489  0.16434652    -0.72500
O36         O  0.47668456  0.17857118  0.27142709    -0.73200
O37         O  0.47692831  0.27076371  0.16663418    -0.72600
O38         O  0.02285766  0.17720121  0.22598678    -0.73100
O39         O  0.08807322  0.22781255  0.22614301    -0.73000
O40         O  0.08840948  0.25999252  0.27436226    -0.72800
C41         C  0.49882446  0.24878590  0.35768508     0.79000
C42         C  0.39533563  0.25087355  0.25188620     0.79500
C43         C  0.49926042  0.33492646  0.25666840     0.78500
C44         C  0.49827907  0.25200375  0.14876493     0.78800
C45         C  0.49812692  0.16483059  0.24797362     0.80000
C46         C  0.10574935  0.24346535  0.25031317     0.79000
Zn47       Zn  0.28283370  0.27419312  0.47108052     1.49700
Zn48       Zn  0.22127998  0.27988554  0.03708941     1.49400
Zn49       Zn  0.21568268  0.22832850  0.47067273     1.49100
Zn50       Zn  0.28021694  0.22333994  0.03458508     1.49500
O51         O  0.25069064  0.25204949  0.00392657    -1.82200
O52         O  0.27518989  0.31970167  0.47937700    -0.72900
O53         O  0.16433398  0.27284696  0.02932310    -0.72700
O54         O  0.22378785  0.23626966  0.41630770    -0.72200
O55         O  0.23340971  0.32460415  0.02478832    -0.72900
O56         O  0.27558988  0.26466188  0.41637331    -0.72500
O57         O  0.16184555  0.23746772  0.48205686    -0.73100
O58         O  0.26795389  0.17952198  0.02004933    -0.72500
O59         O  0.23332228  0.27191696  0.09204665    -0.73200
O60         O  0.22294405  0.18316925  0.47730493    -0.72600
O61         O  0.26895427  0.22936810  0.08999815    -0.73100
O62         O  0.33671132  0.22900536  0.02599057    -0.73000
O63         O  0.33685962  0.26421018  0.48225075    -0.72800
C64         C  0.25639370  0.33660776  0.00192356     0.79000
C65         C  0.14630180  0.25655070  0.00574036     0.79500
C66         C  0.24992324  0.25001861  0.39913129     0.78500
C67         C  0.24389702  0.16775932  0.99791203     0.78800
C68         C  0.25114401  0.25023787  0.10835418     0.80000
C69         C  0.35512479  0.24582864  0.00384691     0.79000
Zn70       Zn  0.27927734  0.27562804  0.22306362     1.49700
Zn71       Zn  0.22295131  0.21896546  0.22062831     1.49400
Zn72       Zn  0.28404437  0.22444594  0.28701952     1.49100
Zn73       Zn  0.21616720  0.27012098  0.28669584     1.49500
O74         O  0.25058609  0.24716643  0.25387525    -1.82200
O75         O  0.26740315  0.27059345  0.16773558    -0.72900
O76         O  0.23594084  0.17424737  0.23346438    -0.72700
O77         O  0.33759265  0.23306032  0.27469014    -0.72200
O78         O  0.23506728  0.22692002  0.16567070    -0.72900
O79         O  0.33546636  0.26820220  0.23051780    -0.72500
O80         O  0.27645582  0.17896843  0.28024265    -0.73100
O81         O  0.22334926  0.26192573  0.34110718    -0.72500
O82         O  0.16600861  0.22594594  0.22823990    -0.73200
O83         O  0.27703040  0.23506520  0.34156731    -0.72600
O84         O  0.16333848  0.26036819  0.27430902    -0.73100
O85         O  0.22177023  0.31543624  0.28049394    -0.73000
O86         O  0.26779881  0.31948628  0.23888492    -0.72800
C87         C  0.25117279  0.24920830  0.14936143     0.79000
C88         C  0.25725190  0.16237206  0.25810160     0.79500
C89         C  0.35395992  0.25073317  0.25219359     0.78500
C90         C  0.25021491  0.24900931  0.35855455     0.78800
C91         C  0.14721742  0.24303862  0.25080731     0.80000
C92         C  0.24398247  0.33159936  0.26137406     0.79000
N93         N  0.99125602  0.46421256  0.02288609    -0.34700
N94         N  0.04662038  0.46431322  0.46964163    -0.55300
N95         N  0.03226678  0.03068252  0.46247182    -0.34700
N96         N  0.98095255  0.03100310  0.01872334    -0.55300
C97         C  0.00651849  0.43559833  0.02571717     0.28900
C98         C  0.97544954  0.47141313  0.05594019     0.28900
C99         C  0.06147673  0.02601544  0.43897125     0.28900
C100        C  0.02666918  0.06148799  0.46594220     0.28900
C101        C  0.04266743  0.43349994  0.47263773     0.37500
C102        C  0.06687993  0.46861428  0.43853858     0.37500
C103        C  0.95445226  0.02515081  0.04437792     0.37500
C104        C  0.97596558  0.06061673  0.00880033     0.37500
C105        C  0.00029284  0.42444398  0.06074126    -0.20400
C106        C  0.98085624  0.44704839  0.07984590    -0.20000
C107        C  0.07480787  0.05413820  0.42720079    -0.20000
C108        C  0.05308217  0.07655870  0.44448833    -0.20000
C109        C  0.06204731  0.41826991  0.44444504    -0.21100
C110        C  0.07760609  0.44050891  0.42308956    -0.21100
C111        C  0.93234366  0.05122673  0.05100054    -0.21100
C112        C  0.94589053  0.07370825  0.02828194    -0.21100
C113        C  0.02494573  0.41893341  0.99707295    -0.16400
C114        C  0.95489388  0.49869224  0.06474545    -0.16400
C115        C  0.00048150  0.07662435  0.98510173    -0.16400
C116        C  0.07374323  0.49726722  0.42213745    -0.16400
H117        H  0.00929809  0.40246608  0.07159402     0.16500
H118        H  0.97196813  0.44564583  0.10822902     0.16500
H119        H  0.09739565  0.05798626  0.40762412     0.16500
H120        H  0.05571354  0.10112440  0.44075011     0.16500
H121        H  0.06426677  0.39375605  0.43914711     0.14800
H122        H  0.09455622  0.43645258  0.39858752     0.14800
H123        H  0.90963261  0.05398620  0.07090811     0.14800
H124        H  0.93560244  0.09723547  0.02716745     0.14800
H125        H  0.98837836  0.47664254  0.99871741     0.28000
H126        H  0.01425199  0.01357608  0.47131183     0.28000
N127        N  0.01701418  0.46254026  0.27443049    -0.34700
N128        N  0.95866533  0.46486919  0.21867415    -0.55300
N129        N  0.95689615  0.03199627  0.22490957    -0.34700
N130        N  0.01476465  0.02995000  0.28113397    -0.55300
C131        C  0.00358167  0.43334064  0.27572093     0.28900
C132        C  0.03645549  0.46756722  0.30611515     0.28900
C133        C  0.94113696  0.02817435  0.19120458     0.28900
C134        C  0.96217818  0.06255400  0.22998686     0.28900
C135        C  0.96206464  0.43396271  0.22040064     0.37500
C136        C  0.93894112  0.47089008  0.18774977     0.37500
C137        C  0.04294368  0.02457253  0.30540285     0.37500
C138        C  0.00871537  0.06073015  0.28154026     0.37500
C139        C  0.01459138  0.41995002  0.30851913    -0.20000
C140        C  0.03560257  0.44128073  0.32733053    -0.20000
C141        C  0.93475148  0.05673174  0.17552289    -0.20000
C142        C  0.94738895  0.07844234  0.20028096    -0.20000
C143        C  0.94314036  0.42020485  0.19110484    -0.21100
C144        C  0.92845300  0.44363629  0.17045981    -0.21100
C145        C  0.05556576  0.05219233  0.32044036    -0.21100
C146        C  0.03353272  0.07500348  0.30574225    -0.21100
C147        C  0.98213020  0.41808236  0.24798274    -0.16400
C148        C  0.05417404  0.49531460  0.31721456    -0.16400
C149        C  0.98251087  0.07652973  0.25912666    -0.16400
C150        C  0.93422001  0.50027066  0.17238693    -0.16400
H151        H  0.00757712  0.39733584  0.31846489     0.16500
H152        H  0.04761308  0.43802753  0.35426963     0.16500
H153        H  0.92269740  0.06143641  0.14871810     0.16500
H154        H  0.94759685  0.10302668  0.19584791     0.16500
H155        H  0.94101532  0.39592451  0.18450129     0.14800
H156        H  0.91275510  0.44098286  0.14499798     0.14800
H157        H  0.07724344  0.05550193  0.34114107     0.14800
H158        H  0.03575798  0.09934374  0.31203651     0.14800
H159        H  0.01569488  0.47739960  0.25217501     0.28000
H160        H  0.96310173  0.01495063  0.24376579     0.28000
N161        N  0.22906281  0.47052377  0.47947747    -0.34700
N162        N  0.23810060  0.03718672  0.47313255    -0.55300
N163        N  0.29249867  0.03462657  0.02897897    -0.34700
N164        N  0.28012986  0.46776346  0.03558128    -0.55300
C165        C  0.20186573  0.47719308  0.45460795     0.28900
C166        C  0.22327701  0.44141298  0.49102387     0.28900
C167        C  0.28480235  0.06522287  0.02873046     0.28900
C168        C  0.31011110  0.02875926  0.06127453     0.28900
C169        C  0.22095605  0.03124025  0.44059595     0.37500
C170        C  0.25265585  0.06573853  0.47054296     0.37500
C171        C  0.27352643  0.43728075  0.03234358     0.37500
C172        C  0.31055418  0.47099951  0.05764136     0.37500
C173        C  0.17855137  0.45197433  0.44992998    -0.20000
C174        C  0.19179947  0.42946649  0.47318389    -0.20000
C175        C  0.29872466  0.07901269  0.06056265    -0.20000
C176        C  0.31471622  0.05605694  0.08103509    -0.20000
C177        C  0.22435915  0.05627308  0.41742890    -0.21100
C178        C  0.24451759  0.07811325  0.43644176    -0.21100
C179        C  0.30027822  0.42096422  0.05244244    -0.21100
C180        C  0.32381664  0.44234088  0.06830438    -0.21100
C181        C  0.20071141  0.50388795  0.43288475    -0.16400
C182        C  0.24230430  0.42417632  0.01349125    -0.16400
C183        C  0.32151229  0.49913032  0.07384178    -0.16400
C184        C  0.26656813  0.08127285  0.00012573    -0.16400
H185        H  0.15524460  0.44975602  0.43083853     0.16500
H186        H  0.18038637  0.40654691  0.47561611     0.16500
H187        H  0.29708192  0.10307344  0.06859783     0.16500
H188        H  0.32800019  0.05919249  0.10762726     0.16500
H189        H  0.21343319  0.05863922  0.38973601     0.14800
H190        H  0.25237503  0.10047615  0.42627416     0.14800
H191        H  0.30216358  0.39633739  0.05622424     0.14800
H192        H  0.34724741  0.43748568  0.08661649     0.14800
H193        H  0.25302771  0.48362579  0.48403356     0.28000
H194        H  0.28838678  0.01911295  0.00731400     0.28000
N195        N  0.28133267  0.02939730  0.22024399    -0.34700
N196        N  0.22643194  0.02924123  0.27838474    -0.55300
N197        N  0.23348282  0.46206134  0.28366555    -0.34700
N198        N  0.29146609  0.46292560  0.22667269    -0.55300
C199        C  0.27712495  0.06013429  0.22569228     0.28900
C200        C  0.31157447  0.02495631  0.19790384     0.28900
C201        C  0.21717921  0.46884180  0.31659920     0.28900
C202        C  0.24865999  0.43339552  0.28614992     0.28900
C203        C  0.22227750  0.05905520  0.26887937     0.37500
C204        C  0.20012880  0.02374188  0.30440657     0.37500
C205        C  0.30937016  0.46772114  0.19437121     0.37500
C206        C  0.28550294  0.43229175  0.22808244     0.37500
C207        C  0.30535120  0.07536572  0.20674536    -0.20000
C208        C  0.32698322  0.05313112  0.18910776    -0.20000
C209        C  0.22159975  0.44392411  0.33994876    -0.20000
C210        C  0.24144623  0.42161612  0.32071290    -0.20000
C211        C  0.19293444  0.07262079  0.28892293    -0.21100
C212        C  0.17906902  0.05027509  0.31167323    -0.21100
C213        C  0.31574666  0.44001369  0.17586981    -0.21100
C214        C  0.30056031  0.41756345  0.19716935    -0.21100
C215        C  0.24691636  0.07479017  0.24501121    -0.16400
C216        C  0.32175545  0.99670477  0.18098423    -0.16400
C217        C  0.26783537  0.41728296  0.25751040    -0.16400
C218        C  0.19879722  0.99665169  0.32529523    -0.16400
H219        H  0.30932994  0.09996394  0.20487169     0.16500
H220        H  0.35054008  0.05723849  0.17083452     0.16500
H221        H  0.21164885  0.44192926  0.36804459     0.16500
H222        H  0.25000169  0.39939930  0.33119831     0.16500
H223        H  0.18349481  0.09639331  0.28827872     0.14800
H224        H  0.15685190  0.05339292  0.33204111     0.14800
H225        H  0.32964740  0.43630928  0.14962952     0.14800
H226        H  0.30026475  0.39325026  0.19029554     0.14800
H227        H  0.26160107  0.01273387  0.22645956     0.28000
H228        H  0.23155237  0.47503217  0.25986296     0.28000
C229        C  0.18467954  0.50129243  0.39646998    -0.11400
C230        C  0.18437931  0.99936932  0.36241418    -0.12900
C231        C  0.33552206  0.49784764  0.11104866    -0.11400
C232        C  0.33612950  0.99780219  0.14390266    -0.12900
C233        C  0.07586493  0.49510089  0.35100382    -0.11400
C234        C  0.08274496  0.49658207  0.38340181    -0.12900
C235        C  0.93682124  0.50057459  0.10039573    -0.11400
C236        C  0.93010689  0.50121627  0.13287347    -0.12900
C237        C  0.24148434  0.10852962  0.24061308    -0.14500
C238        C  0.26062525  0.12859104  0.26175553    -0.29700
H239        H  0.22188734  0.11658848  0.21971022     0.14500
H240        H  0.27989543  0.11975521  0.28255808     0.15100
C241        C  0.24138392  0.36522166  0.26531356    -0.14500
C242        C  0.27111652  0.38315903  0.25826691    -0.29700
H243        H  0.21448562  0.37538534  0.27392684     0.14500
H244        H  0.29777268  0.37250478  0.24971059     0.15100
C245        C  0.24052062  0.13421265  0.99476512    -0.14500
C246        C  0.27020532  0.11537365  0.00036079    -0.29700
H247        H  0.21703786  0.12341261  0.48365740     0.14500
H248        H  0.29733407  0.12517557  0.00810806     0.15100
C249        C  0.26008200  0.37036308  0.99969153    -0.14500
C250        C  0.23636165  0.39042074  0.01649774    -0.29700
H251        H  0.27929885  0.37857983  0.47761180     0.14500
H252        H  0.21177587  0.38233511  0.03143889     0.15100
C253        C  0.49849683  0.13101942  0.24489119    -0.14500
C254        C  0.47203371  0.11348191  0.26045632    -0.29700
H255        H  0.02444414  0.11798295  0.22652047     0.14500
H256        H  0.44847362  0.12382299  0.27559674     0.15100
C257        C  0.49978110  0.36881693  0.25862100    -0.14500
C258        C  0.46877051  0.38621481  0.25195437    -0.29700
H259        H  0.03604753  0.37463185  0.26077218     0.14500
H260        H  0.44254474  0.37487671  0.24439762     0.15100
C261        C  0.01721413  0.13013950  0.00098837    -0.14500
C262        C  0.99509590  0.11052572  0.98207181    -0.29700
H263        H  0.03997582  0.12088583  0.01785663     0.14500
H264        H  0.48253837  0.12096260  0.45804467     0.15100
C265        C  0.02613890  0.38459803  0.99782111    -0.14500
C266        C  0.99572716  0.36774446  0.00650320    -0.29700
H267        H  0.05198951  0.37283552  0.98902627     0.14500
H268        H  0.46708241  0.38121675  0.51436857     0.15100
Zn269      Zn  0.03237598  0.22507149  0.53610253     1.49700
Zn270      Zn  0.47146341  0.22199241  0.97238781     1.49400
Zn271      Zn  0.46526909  0.27624451  0.53588741     1.49100
Zn272      Zn  0.03100277  0.27556722  0.97054441     1.49500
O273        O  0.99914028  0.24858834  0.50312979    -1.82200
O274        O  0.02594492  0.17944116  0.52673361    -0.72900
O275        O  0.41501539  0.22701980  0.98365253    -0.72700
O276        O  0.47461561  0.27065064  0.59081613    -0.72200
O277        O  0.48814980  0.17781307  0.98266168    -0.72900
O278        O  0.02129709  0.23344279  0.59016030    -0.72500
O279        O  0.41112304  0.26566183  0.52658227    -0.73100
O280        O  0.01958110  0.32017210  0.98257580    -0.72500
O281        O  0.47892841  0.23022265  0.91687362    -0.73200
O282        O  0.47176881  0.32124624  0.52564183    -0.72600
O283        O  0.02091430  0.26763822  0.91529237    -0.73100
O284        O  0.08683406  0.26976550  0.98082321    -0.73000
O285        O  0.08721245  0.23608893  0.52802682    -0.72800
C286        C  0.00571386  0.16341008  0.50480467     0.79000
C287        C  0.39471123  0.24646681  0.50539385     0.79500
C288        C  0.99784794  0.25099097  0.60720131     0.78500
C289        C  0.99436810  0.33360367  0.50536470     0.78800
C290        C  0.99979326  0.24869779  0.89782231     0.80000
C291        C  0.10363233  0.25400116  0.50572719     0.79000
Zn292      Zn  0.03036717  0.27479176  0.78457216     1.49700
Zn293      Zn  0.46585412  0.22519953  0.78476883     1.49400
Zn294      Zn  0.46608361  0.27836574  0.72221577     1.49100
Zn295      Zn  0.02979753  0.22505895  0.71841608     1.49500
O296        O  0.49738873  0.25110021  0.75322390    -1.82200
O297        O  0.02020998  0.26766417  0.83950473    -0.72900
O298        O  0.41098134  0.23490762  0.77444367    -0.72700
O299        O  0.47664291  0.32280378  0.73501189    -0.72200
O300        O  0.47590578  0.23171471  0.84046699    -0.72900
O301        O  0.02323943  0.31995162  0.77364960    -0.72500
O302        O  0.41065664  0.27083668  0.73112812    -0.73100
O303        O  0.02063087  0.23371517  0.66474561    -0.72500
O304        O  0.47414483  0.18009949  0.77150410    -0.73200
O305        O  0.47546091  0.27184199  0.66688656    -0.72600
O306        O  0.01969915  0.18065811  0.72524197    -0.73100
O307        O  0.08504948  0.23047212  0.72813833    -0.73000
O308        O  0.08508337  0.26394213  0.77506435    -0.72800
C309        C  0.49803410  0.24975161  0.85811376     0.79000
C310        C  0.39332517  0.25285309  0.75268039     0.79500
C311        C  0.50064243  0.33593041  0.75606631     0.78500
C312        C  0.49723681  0.25337450  0.64902228     0.78800
C313        C  0.49502423  0.16631311  0.74761497     0.80000
C314        C  0.10254037  0.24651117  0.75202624     0.79000
Zn315      Zn  0.28443688  0.27477022  0.97122226     1.49700
Zn316      Zn  0.21959041  0.27977254  0.53644663     1.49400
Zn317      Zn  0.21655888  0.22945284  0.97096964     1.49100
Zn318      Zn  0.27867312  0.22328710  0.53509819     1.49500
O319        O  0.24914593  0.25155651  0.50383848    -1.82200
O320        O  0.27727120  0.32018777  0.98061735    -0.72900
O321        O  0.16284323  0.27234935  0.52772588    -0.72700
O322        O  0.22457343  0.23716498  0.91672693    -0.72200
O323        O  0.23247001  0.32480603  0.52446672    -0.72900
O324        O  0.27574446  0.26630762  0.91631917    -0.72500
O325        O  0.16309140  0.23988749  0.98176019    -0.73100
O326        O  0.26816880  0.17926789  0.51978319    -0.72500
O327        O  0.23047269  0.27154947  0.59166923    -0.73200
O328        O  0.22204305  0.18421700  0.97837065    -0.72600
O329        O  0.26622331  0.22904885  0.59041352    -0.73100
O330        O  0.33513971  0.22994553  0.52739890    -0.73000
O331        O  0.33868281  0.26405853  0.98172607    -0.72800
C332        C  0.25512216  0.33650359  0.50099463     0.79000
C333        C  0.14494548  0.25486023  0.50527024     0.79500
C334        C  0.25000774  0.25150857  0.89931893     0.78500
C335        C  0.24515484  0.16708907  0.49690131     0.78800
C336        C  0.24802323  0.24993766  0.60839449     0.80000
C337        C  0.35340455  0.24656948  0.50491331     0.79000
Zn338      Zn  0.27669981  0.27672756  0.72281561     1.49700
Zn339      Zn  0.21875465  0.22075579  0.72151729     1.49400
Zn340      Zn  0.28159705  0.22557473  0.78661752     1.49100
Zn341      Zn  0.21387883  0.27188477  0.78739595     1.49500
O342        O  0.24776190  0.24865143  0.75409200    -1.82200
O343        O  0.26543229  0.27014907  0.66750402    -0.72900
O344        O  0.23044640  0.17601788  0.73475741    -0.72700
O345        O  0.33537651  0.23435489  0.77460511    -0.72200
O346        O  0.23014036  0.22800241  0.66616615    -0.72900
O347        O  0.33322572  0.27011672  0.73119593    -0.72500
O348        O  0.27354178  0.18025366  0.77938207    -0.73100
O349        O  0.22304778  0.26482476  0.84184992    -0.72500
O350        O  0.16233349  0.22859419  0.72987844    -0.73200
O351        O  0.27489029  0.23561916  0.84125372    -0.72600
O352        O  0.16046874  0.26222710  0.77675733    -0.73100
O353        O  0.21842433  0.31688258  0.77931252    -0.73000
O354        O  0.26376116  0.32091932  0.73694119    -0.72800
C355        C  0.24776688  0.24932276  0.64946871     0.79000
C356        C  0.25273706  0.16392750  0.75839020     0.79500
C357        C  0.35180362  0.25251567  0.75269390     0.78500
C358        C  0.24944261  0.25076642  0.85875073     0.78800
C359        C  0.14394876  0.24548181  0.75292644     0.80000
C360        C  0.23971605  0.33302746  0.75925441     0.79000
N361        N  0.98587344  0.46405078  0.52377519    -0.34700
N362        N  0.04859231  0.46447140  0.96571900    -0.55300
N363        N  0.03435098  0.03115085  0.95958455    -0.34700
N364        N  0.97577963  0.03096530  0.51931240    -0.55300
C365        C  0.00109408  0.43550257  0.52766831     0.28900
C366        C  0.96788903  0.47132673  0.55576754     0.28900
C367        C  0.06316523  0.02659377  0.93560405     0.28900
C368        C  0.03000153  0.06195032  0.96466848     0.28900
C369        C  0.04386811  0.43368398  0.96807463     0.37500
C370        C  0.06670407  0.46907551  0.93346243     0.37500
C371        C  0.94842841  0.02549920  0.54423937     0.37500
C372        C  0.97193023  0.06072107  0.50954253     0.37500
C373        C  0.99240492  0.42437751  0.56219813    -0.20400
C374        C  0.97162706  0.44695952  0.57994185    -0.20000
C375        C  0.07749500  0.05474218  0.92510973    -0.20000
C376        C  0.05679300  0.07709402  0.94372653    -0.20000
C377        C  0.06066805  0.41870239  0.93819385    -0.21100
C378        C  0.07536411  0.44112616  0.91646822    -0.21100
C379        C  0.92681071  0.05194200  0.55037992    -0.21100
C380        C  0.94165998  0.07426345  0.52826870    -0.21100
C381        C  0.02197776  0.41888025  0.50056690    -0.16400
C382        C  0.94739953  0.49888465  0.56363745    -0.16400
C383        C  0.99700240  0.07632417  0.48598762    -0.16400
C384        C  0.07366618  0.49801224  0.91782412    -0.16400
H385        H  0.00078305  0.40247932  0.57370632     0.16500
H386        H  0.96088812  0.44557849  0.60769348     0.16500
H387        H  0.09981523  0.05867162  0.90525548     0.16500
H388        H  0.06018573  0.10168661  0.94098251     0.16500
H389        H  0.06177948  0.39426216  0.93213254     0.14800
H390        H  0.09054265  0.43731942  0.89083317     0.14800
H391        H  0.90357798  0.05505396  0.56964913     0.14800
H392        H  0.93195507  0.09793890  0.52693161     0.14800
H393        H  0.98475442  0.47649763  0.49945980     0.28000
H394        H  0.01541420  0.01429617  0.96718359     0.28000
N395        N  0.00978658  0.46579157  0.77174000    -0.34700
N396        N  0.95043046  0.46788541  0.71727753    -0.55300
N397        N  0.94914914  0.03544970  0.72342360    -0.34700
N398        N  0.00988372  0.03328860  0.77662453    -0.55300
C399        C  0.99575976  0.43683772  0.77379603     0.28900
C400        C  0.02897749  0.47115542  0.80347080     0.28900
C401        C  0.93211786  0.03150374  0.69032899     0.28900
C402        C  0.95485259  0.06601043  0.72803015     0.28900
C403        C  0.95390609  0.43696720  0.71901107     0.37500
C404        C  0.92993913  0.47381320  0.68681042     0.37500
C405        C  0.03904007  0.02768474  0.79970183     0.37500
C406        C  0.00488886  0.06416102  0.77640829     0.37500
C407        C  0.00579865  0.42403894  0.80718338    -0.20000
C408        C  0.02690013  0.44548896  0.82564261    -0.20000
C409        C  0.92526353  0.05999252  0.67466133    -0.20000
C410        C  0.93889825  0.08180653  0.69881490    -0.20000
C411        C  0.93418252  0.42312346  0.69030937    -0.21100
C412        C  0.91884204  0.44649989  0.67003524    -0.21100
C413        C  0.05350147  0.05521811  0.81318981    -0.21100
C414        C  0.03158532  0.07827674  0.79878905    -0.21100
C415        C  0.97474614  0.42122309  0.74614500    -0.16400
C416        C  0.04804339  0.49853376  0.81348995    -0.16400
C417        C  0.97719237  0.08000848  0.75571758    -0.16400
C418        C  0.92564986  0.50301972  0.67089929    -0.16400
H419        H  0.99807679  0.40174773  0.81765461     0.16500
H420        H  0.03813673  0.44277427  0.85295063     0.16500
H421        H  0.91238382  0.06455027  0.64818218     0.16500
H422        H  0.93931651  0.10635178  0.69409484     0.16500
H423        H  0.93190988  0.39884059  0.68380660     0.14800
H424        H  0.90252365  0.44377347  0.64495795     0.14800
H425        H  0.07604600  0.05833345  0.83305349     0.14800
H426        H  0.03484643  0.10262971  0.80444008     0.14800
H427        H  0.00925506  0.48006251  0.74888861     0.28000
H428        H  0.95628754  0.01842882  0.74200656     0.28000
N429        N  0.22052997  0.47114165  0.98173567    -0.34700
N430        N  0.23048221  0.03784099  0.97552062    -0.55300
N431        N  0.29464817  0.03536690  0.53142987    -0.34700
N432        N  0.28277213  0.46886556  0.53863698    -0.55300
C433        C  0.19420666  0.47739995  0.95585501     0.28900
C434        C  0.21681433  0.44125034  0.99120469     0.28900
C435        C  0.28655961  0.06584818  0.53006451     0.28900
C436        C  0.30924332  0.03006682  0.56519783     0.28900
C437        C  0.21124444  0.03228173  0.94396931     0.37500
C438        C  0.24507022  0.06635984  0.97249202     0.37500
C439        C  0.27741764  0.43820894  0.53488912     0.37500
C440        C  0.31189135  0.47266177  0.56226230     0.37500
C441        C  0.17295051  0.45128554  0.94905828    -0.20000
C442        C  0.18682146  0.42859500  0.97167332    -0.20000
C443        C  0.29698160  0.08013524  0.56284876    -0.20000
C444        C  0.31134782  0.05759681  0.58498086    -0.20000
C445        C  0.21295076  0.05771545  0.92125103    -0.21100
C446        C  0.23447468  0.07923130  0.93928353    -0.21100
C447        C  0.30355321  0.42236086  0.55614818    -0.21100
C448        C  0.32544328  0.44421961  0.57343919    -0.21100
C449        C  0.19261290  0.50447039  0.93468005    -0.16400
C450        C  0.24744970  0.42458536  0.51477860    -0.16400
C451        C  0.32165430  0.50111239  0.57858431    -0.16400
C452        C  0.27108614  0.08131921  0.49964549    -0.16400
H453        H  0.15110013  0.44845408  0.92852274     0.16500
H454        H  0.17739027  0.40496626  0.97191097     0.16500
H455        H  0.29414450  0.10425077  0.57033836     0.16500
H456        H  0.32193385  0.06117899  0.61262596     0.16500
H457        H  0.20040832  0.06040780  0.89425891     0.14800
H458        H  0.24198552  0.10156752  0.92879952     0.14800
H459        H  0.30606713  0.39770586  0.55950713     0.14800
H460        H  0.34820291  0.43978954  0.59265681     0.14800
H461        H  0.24266870  0.48543034  0.98852137     0.28000
H462        H  0.29299849  0.01957219  0.50969082     0.28000
N463        N  0.27414333  0.03207550  0.72392360    -0.34700
N464        N  0.21754032  0.03030742  0.78056960    -0.55300
N465        N  0.22612513  0.46322142  0.78361613    -0.34700
N466        N  0.28587285  0.46562884  0.72856328    -0.55300
C467        C  0.26873505  0.06269135  0.72943825     0.28900
C468        C  0.30505013  0.02837606  0.70224068     0.28900
C469        C  0.20991578  0.46950900  0.81675805     0.28900
C470        C  0.24129047  0.43450375  0.78542209     0.28900
C471        C  0.21290669  0.06018979  0.77155037     0.37500
C472        C  0.19165765  0.02429008  0.80681284     0.37500
C473        C  0.30649469  0.47109152  0.69802619     0.37500
C474        C  0.28073159  0.43486422  0.72900629     0.37500
C475        C  0.29679632  0.07857463  0.71094444    -0.20000
C476        C  0.31967160  0.05690004  0.69385350    -0.20000
C477        C  0.21431469  0.44420065  0.83948445    -0.20000
C478        C  0.23395255  0.42212385  0.81963995    -0.20000
C479        C  0.18348496  0.07322649  0.79201901    -0.21100
C480        C  0.17026561  0.05053026  0.81464098    -0.21100
C481        C  0.31553053  0.44368626  0.67990786    -0.21100
C482        C  0.29898077  0.42075852  0.69932995    -0.21100
C483        C  0.23773377  0.07662544  0.74851041    -0.16400
C484        C  0.31710986  0.00035736  0.68586266    -0.16400
C485        C  0.26150697  0.41912071  0.75686968    -0.16400
C486        C  0.19110616  0.99703807  0.82745091    -0.16400
H487        H  0.30005800  0.10322268  0.70895146     0.16500
H488        H  0.34371331  0.06159355  0.67636809     0.16500
H489        H  0.20455096  0.44183334  0.86759345     0.16500
H490        H  0.24264782  0.39977780  0.82963274     0.16500
H491        H  0.17380868  0.09695063  0.79200504     0.14800
H492        H  0.14839352  0.05326361  0.83541445     0.14800
H493        H  0.33214869  0.44048230  0.65513252     0.14800
H494        H  0.30023807  0.39651213  0.69216112     0.14800
H495        H  0.25494609  0.01492596  0.72986324     0.28000
H496        H  0.22446442  0.47665476  0.76013573     0.28000
C497        C  0.17773300  0.50175968  0.89773944    -0.11400
C498        C  0.17734346  0.99942230  0.86490510    -0.12900
C499        C  0.33464721  0.50067591  0.61617462    -0.11400
C500        C  0.33300177  0.00156480  0.64936630    -0.12900
C501        C  0.07083131  0.49808165  0.84658913    -0.11400
C502        C  0.07965264  0.49848250  0.87857216    -0.12900
C503        C  0.92868505  0.50148153  0.59895042    -0.11400
C504        C  0.92168417  0.50327307  0.63133844    -0.12900
C505        C  0.23194461  0.11045839  0.74532933    -0.14500
C506        C  0.25573387  0.13017800  0.76185800    -0.29700
H507        H  0.20770018  0.11890612  0.72991009     0.14500
H508        H  0.27871718  0.12103945  0.77854798     0.15100
C509        C  0.23583670  0.36661827  0.76223063    -0.14500
C510        C  0.26545312  0.38502487  0.75692290    -0.29700
H511        H  0.20833411  0.37635041  0.76964488     0.14500
H512        H  0.29281156  0.37479431  0.74991313     0.15100
C513        C  0.24351952  0.13348649  0.49282425    -0.14500
C514        C  0.27359900  0.11544946  0.49986498    -0.29700
H515        H  0.21308918  0.12489082  0.98730350     0.14500
H516        H  0.29977018  0.12587747  0.50938190     0.15100
C517        C  0.25936825  0.37028407  0.49801012    -0.14500
C518        C  0.24068697  0.39101252  0.51914743    -0.29700
H519        H  0.28335453  0.37921555  0.98339713     0.14500
H520        H  0.22046988  0.38364334  0.53973965     0.15100
C521        C  0.49486968  0.13256144  0.74418287    -0.14500
C522        C  0.46902783  0.11507871  0.76074364    -0.29700
H523        H  0.02088841  0.12145618  0.72523456     0.14500
H524        H  0.44627398  0.12539792  0.77703438     0.15100
C525        C  0.50251233  0.36977862  0.75726484    -0.14500
C526        C  0.47200485  0.38759540  0.75033390    -0.29700
H527        H  0.02986716  0.37900465  0.76053950     0.14500
H528        H  0.44545408  0.37661280  0.74309057     0.15100
C529        C  0.00907915  0.12948769  0.50673452    -0.14500
C530        C  0.99237366  0.11024567  0.48259712    -0.29700
H531        H  0.02633617  0.11986620  0.52865224     0.14500
H532        H  0.47762790  0.12068071  0.96577956     0.15100
C533        C  0.02375555  0.38457261  0.50177897    -0.14500
C534        C  0.99287573  0.36744638  0.50751487    -0.29700
H535        H  0.05046703  0.37304401  0.49533258     0.14500
H536        H  0.46877529  0.38046321  0.01629021     0.15100
Zn537      Zn  0.03446024  0.72545296  0.03581058     1.49700
Zn538      Zn  0.46931002  0.72245475  0.47218487     1.49400
Zn539      Zn  0.46712870  0.77633781  0.03567909     1.49100
Zn540      Zn  0.02941418  0.77531878  0.47235188     1.49500
O541        O  0.00079895  0.74866169  0.00301327    -1.82200
O542        O  0.03210389  0.68006329  0.02305676    -0.72900
O543        O  0.41306745  0.72856849  0.48344883    -0.72700
O544        O  0.47571697  0.77019475  0.09076056    -0.72200
O545        O  0.48418258  0.67778717  0.48281890    -0.72900
O546        O  0.02157287  0.73121403  0.09009648    -0.72500
O547        O  0.41287598  0.76620983  0.02526015    -0.73100
O548        O  0.01770045  0.82003977  0.48475612    -0.72500
O549        O  0.47791553  0.73019374  0.41660509    -0.73200
O550        O  0.47462332  0.82130881  0.02567480    -0.72600
O551        O  0.02067859  0.76657546  0.41692067    -0.73100
O552        O  0.08513321  0.76963411  0.48278011    -0.73000
O553        O  0.08854017  0.73902844  0.02986417    -0.72800
C554        C  0.01221355  0.66388592  0.00097833     0.79000
C555        C  0.39655353  0.74623171  0.00503738     0.79500
C556        C  0.99849308  0.74881070  0.10757982     0.78500
C557        C  0.99617398  0.83354360  0.00516968     0.78800
C558        C  0.00051304  0.74699160  0.39933668     0.80000
C559        C  0.10493764  0.75579308  0.00632820     0.79000
Zn560      Zn  0.03366950  0.77076227  0.28574152     1.49700
Zn561      Zn  0.46779837  0.72379627  0.28447434     1.49400
Zn562      Zn  0.46739443  0.77710033  0.22217077     1.49100
Zn563      Zn  0.03213533  0.72186595  0.21854052     1.49500
O564        O  0.49909347  0.74996897  0.25303714    -1.82200
O565        O  0.02334573  0.76419772  0.34091772    -0.72900
O566        O  0.41300430  0.73302661  0.27401024    -0.72700
O567        O  0.47606973  0.82156051  0.23569584    -0.72200
O568        O  0.47693905  0.73071106  0.34014513    -0.72900
O569        O  0.02716300  0.81579656  0.27523760    -0.72500
O570        O  0.41244641  0.76888306  0.23064088    -0.73100
O571        O  0.02114073  0.73026138  0.16481640    -0.72500
O572        O  0.47674343  0.67873018  0.27151862    -0.73200
O573        O  0.47677424  0.77125719  0.16691236    -0.72600
O574        O  0.02291816  0.67737928  0.22651227    -0.73100
O575        O  0.08782785  0.72824223  0.22656671    -0.73000
O576        O  0.08814518  0.76020531  0.27499490    -0.72800
C577        C  0.49903000  0.74866327  0.35792583     0.79000
C578        C  0.39529196  0.75087102  0.25221697     0.79500
C579        C  0.49943618  0.83490467  0.25717859     0.78500
C580        C  0.49822574  0.75263979  0.14895049     0.78800
C581        C  0.49780086  0.66500151  0.24773080     0.80000
C582        C  0.10549394  0.74387166  0.25076605     0.79000
Zn583      Zn  0.28290647  0.77420311  0.47097276     1.49700
Zn584      Zn  0.22124735  0.78009826  0.03719883     1.49400
Zn585      Zn  0.21566853  0.72840110  0.47067353     1.49100
Zn586      Zn  0.28031110  0.72345912  0.03477977     1.49500
O587        O  0.25067071  0.75214280  0.00414830    -1.82200
O588        O  0.27537717  0.81971204  0.47921941    -0.72900
O589        O  0.16428505  0.77315951  0.02937637    -0.72700
O590        O  0.22364808  0.73641048  0.41626437    -0.72200
O591        O  0.23359075  0.82483888  0.02508410    -0.72900
O592        O  0.27552016  0.76472381  0.41627419    -0.72500
O593        O  0.16180345  0.73741715  0.48226380    -0.73100
O594        O  0.26834844  0.67948870  0.02019784    -0.72500
O595        O  0.23315620  0.77206016  0.09211357    -0.73200
O596        O  0.22308278  0.68323175  0.47732025    -0.72600
O597        O  0.26886190  0.72953518  0.09012652    -0.73100
O598        O  0.33682512  0.72944328  0.02640057    -0.73000
O599        O  0.33694237  0.76412639  0.48209702    -0.72800
C600        C  0.25662092  0.83679551  0.00222849     0.79000
C601        C  0.14624130  0.75662695  0.00604013     0.79500
C602        C  0.24978397  0.75014123  0.39905718     0.78500
C603        C  0.24424128  0.66768377  0.99813050     0.78800
C604        C  0.25098311  0.75039584  0.10843562     0.80000
C605        C  0.35517801  0.74635570  0.00430121     0.79000
Zn606      Zn  0.27939218  0.77564418  0.22305623     1.49700
Zn607      Zn  0.22248496  0.71928245  0.22066932     1.49400
Zn608      Zn  0.28376264  0.72437673  0.28689367     1.49100
Zn609      Zn  0.21617269  0.77060306  0.28661590     1.49500
O610        O  0.25042122  0.74734876  0.25386168    -1.82200
O611        O  0.26759837  0.77058689  0.16775919    -0.72900
O612        O  0.23514974  0.67443172  0.23328035    -0.72700
O613        O  0.33745335  0.73299747  0.27485789    -0.72200
O614        O  0.23447936  0.72729837  0.16573319    -0.72900
O615        O  0.33549189  0.76810582  0.23065213    -0.72500
O616        O  0.27608352  0.67891160  0.27973401    -0.73100
O617        O  0.22348833  0.76252539  0.34104699    -0.72500
O618        O  0.16565735  0.72643204  0.22849639    -0.73200
O619        O  0.27652189  0.73479960  0.34147222    -0.72600
O620        O  0.16318029  0.76096324  0.27446023    -0.73100
O621        O  0.22212653  0.81588908  0.28022713    -0.73000
O622        O  0.26829862  0.81957017  0.23871739    -0.72800
C623        C  0.25097552  0.74939030  0.14941789     0.79000
C624        C  0.25662450  0.66242045  0.25768761     0.79500
C625        C  0.35390928  0.75066876  0.25241278     0.78500
C626        C  0.25003647  0.74915895  0.35847425     0.78800
C627        C  0.14696180  0.74356912  0.25108226     0.80000
C628        C  0.24455570  0.83187336  0.26112248     0.79000
N629        N  0.99006939  0.96382930  0.02336543    -0.34700
N630        N  0.04598565  0.96423325  0.47161510    -0.55300
N631        N  0.03341506  0.53078738  0.46070037    -0.34700
N632        N  0.98245332  0.53131706  0.01804972    -0.55300
C633        C  0.00547446  0.93526037  0.02614220     0.28900
C634        C  0.97430221  0.97094552  0.05645431     0.28900
C635        C  0.06256594  0.52605125  0.43714128     0.28900
C636        C  0.02808666  0.56160297  0.46435056     0.28900
C637        C  0.04224713  0.93340365  0.47466987     0.37500
C638        C  0.06616890  0.96858903  0.44047354     0.37500
C639        C  0.95593096  0.52565837  0.04375235     0.37500
C640        C  0.97761697  0.56090612  0.00799256     0.37500
C641        C  0.99937930  0.92405050  0.06116057    -0.20400
C642        C  0.97987116  0.94657174  0.08032304    -0.20000
C643        C  0.07609984  0.55414261  0.42547914    -0.20000
C644        C  0.05458936  0.57661377  0.44293265    -0.20000
C645        C  0.06172721  0.91822896  0.44649517    -0.21100
C646        C  0.07706684  0.94051377  0.42505326    -0.21100
C647        C  0.93398475  0.55183829  0.05028795    -0.21100
C648        C  0.94764394  0.57418320  0.02745226    -0.21100
C649        C  0.02400208  0.91870593  0.99748228    -0.16400
C650        C  0.95365003  0.99815339  0.06533774    -0.16400
C651        C  0.00214185  0.57673316  0.98414304    -0.16400
C652        C  0.07277269  0.99725260  0.42399006    -0.16400
H653        H  0.00853748  0.90210022  0.07197787     0.16500
H654        H  0.97103957  0.94510559  0.10872005     0.16500
H655        H  0.09871377  0.55794096  0.40591304     0.16500
H656        H  0.05745421  0.60118198  0.43937729     0.16500
H657        H  0.06407739  0.89371922  0.44121470     0.14800
H658        H  0.09389428  0.93650368  0.40046204     0.14800
H659        H  0.91128049  0.55474623  0.07018051     0.14800
H660        H  0.93747994  0.59774024  0.02622250     0.14800
H661        H  0.98710358  0.97629151  0.99923122     0.28000
H662        H  0.01529649  0.51375609  0.46955757     0.28000
N663        N  0.01609748  0.96248393  0.27603991    -0.34700
N664        N  0.95825283  0.96465612  0.21972506    -0.55300
N665        N  0.95698724  0.53215728  0.22445669    -0.34700
N666        N  0.01555376  0.52997404  0.27994094    -0.55300
C667        C  0.00281075  0.93323839  0.27723770     0.28900
C668        C  0.03541741  0.96754309  0.30778764     0.28900
C669        C  0.94103554  0.52849973  0.19081438     0.28900
C670        C  0.96195694  0.56271081  0.22987511     0.28900
C671        C  0.96154278  0.93375299  0.22169324     0.37500
C672        C  0.93860391  0.97055013  0.18871377     0.37500
C673        C  0.04423004  0.52454009  0.30363072     0.37500
C674        C  0.00953667  0.56075267  0.28051597     0.37500
C675        C  0.01381537  0.91983644  0.31003645    -0.20000
C676        C  0.03465783  0.94122044  0.32895576    -0.20000
C677        C  0.93417086  0.55714072  0.17554313    -0.20000
C678        C  0.94668172  0.57874510  0.20050824    -0.20000
C679        C  0.94265918  0.91988482  0.19244288    -0.21100
C680        C  0.92807376  0.94322800  0.17160572    -0.21100
C681        C  0.05724125  0.55213070  0.31841262    -0.21100
C682        C  0.03492067  0.57497998  0.30419424    -0.21100
C683        C  0.98148127  0.91795018  0.24942949    -0.16400
C684        C  0.05291557  0.99535134  0.31901215    -0.16400
C685        C  0.98270056  0.57657081  0.25881714    -0.16400
C686        C  0.93397757  0.99985394  0.17311336    -0.16400
H687        H  0.00690746  0.89717570  0.31990584     0.16500
H688        H  0.04662437  0.93797747  0.35593286     0.16500
H689        H  0.92192605  0.56196819  0.14885297     0.16500
H690        H  0.94660996  0.60337093  0.19636102     0.16500
H691        H  0.94047400  0.89558018  0.18600023     0.14800
H692        H  0.91241367  0.94046224  0.14613830     0.14800
H693        H  0.07931284  0.55538443  0.33873002     0.14800
H694        H  0.03728558  0.59930587  0.31051018     0.14800
H695        H  0.01477049  0.97735922  0.25380637     0.28000
H696        H  0.96367058  0.51499112  0.24300058     0.28000
N697        N  0.22955335  0.97052341  0.47853891    -0.34700
N698        N  0.23761172  0.53725582  0.47395825    -0.55300
N699        N  0.29259239  0.53428902  0.02876651    -0.34700
N700        N  0.28053727  0.96811594  0.03563537    -0.55300
C701        C  0.20249586  0.97719368  0.45351532     0.28900
C702        C  0.22361656  0.94144990  0.49013485     0.28900
C703        C  0.28526109  0.56495261  0.02840920     0.28900
C704        C  0.31022611  0.52837783  0.06104503     0.28900
C705        C  0.22023800  0.53125337  0.44154110     0.37500
C706        C  0.25224770  0.56577182  0.47114319     0.37500
C707        C  0.27418304  0.93760386  0.03226707     0.37500
C708        C  0.31108029  0.97143369  0.05752821     0.37500
C709        C  0.17914945  0.95200096  0.44876384    -0.20000
C710        C  0.19222695  0.92951304  0.47213583    -0.20000
C711        C  0.29952433  0.57872165  0.06010330    -0.20000
C712        C  0.31530585  0.55570766  0.08061061    -0.20000
C713        C  0.22353968  0.55622494  0.41826781    -0.21100
C714        C  0.24388348  0.57807026  0.43705646    -0.21100
C715        C  0.30118306  0.92136021  0.05213853    -0.21100
C716        C  0.32465165  0.94280823  0.06796153    -0.21100
C717        C  0.20140838  0.00391633  0.43183394    -0.16400
C718        C  0.24288510  0.92442544  0.01361820    -0.16400
C719        C  0.32188646  0.99956553  0.07381738    -0.16400
C720        C  0.26692344  0.58108391  0.99991040    -0.16400
H721        H  0.15588588  0.94980427  0.42960395     0.16500
H722        H  0.18072674  0.90662496  0.47459215     0.16500
H723        H  0.29821907  0.60281062  0.06805565     0.16500
H724        H  0.32877454  0.55883331  0.10710462     0.16500
H725        H  0.21249162  0.55852639  0.39061412     0.14800
H726        H  0.25181546  0.60035496  0.42670524     0.14800
H727        H  0.30327663  0.89673164  0.05581431     0.14800
H728        H  0.34822119  0.93801469  0.08612999     0.14800
H729        H  0.25351932  0.98359950  0.48325081     0.28000
H730        H  0.28815108  0.51872322  0.00722732     0.28000
N731        N  0.27930052  0.52942553  0.22026310    -0.34700
N732        N  0.22496768  0.52920866  0.27893707    -0.55300
N733        N  0.23485485  0.96216897  0.28315344    -0.34700
N734        N  0.29340442  0.96293686  0.22662373    -0.55300
C735        C  0.27497372  0.56017315  0.22561590     0.28900
C736        C  0.30938987  0.52500864  0.19770673     0.28900
C737        C  0.21821269  0.96895381  0.31592565     0.28900
C738        C  0.25008932  0.93354211  0.28582683     0.28900
C739        C  0.22069324  0.55904144  0.26951472     0.37500
C740        C  0.19908719  0.52371168  0.30536695     0.37500
C741        C  0.31122339  0.96772772  0.19427417     0.37500
C742        C  0.28722259  0.93233155  0.22794766     0.37500
C743        C  0.30290783  0.57543193  0.20629562    -0.20000
C744        C  0.32454529  0.55321269  0.18864394    -0.20000
C745        C  0.22250015  0.94408482  0.33936783    -0.20000
C746        C  0.24261143  0.92180150  0.32035693    -0.20000
C747        C  0.19170453  0.57261510  0.29003631    -0.21100
C748        C  0.17818970  0.55026529  0.31297850    -0.21100
C749        C  0.31735703  0.94003978  0.17566032    -0.21100
C750        C  0.30210906  0.91760191  0.19695736    -0.21100
C751        C  0.24499091  0.57481076  0.24532788    -0.16400
C752        C  0.31982448  0.49669940  0.18102027    -0.16400
C753        C  0.26936231  0.91737102  0.25730148    -0.16400
C754        C  0.19795737  0.49657623  0.32621392    -0.16400
H755        H  0.30677055  0.60003126  0.20426903     0.16500
H756        H  0.34803682  0.55734354  0.17030622     0.16500
H757        H  0.21226355  0.94209597  0.36736616     0.16500
H758        H  0.25110339  0.89960296  0.33094224     0.16500
H759        H  0.18229317  0.59639995  0.28958055     0.14800
H760        H  0.15631965  0.55339632  0.33369383     0.14800
H761        H  0.33112631  0.93634936  0.14934900     0.14800
H762        H  0.30159660  0.89330719  0.19000736     0.14800
H763        H  0.25978351  0.51270066  0.22683066     0.28000
H764        H  0.23307635  0.97508261  0.25929145     0.28000
C765        C  0.18529338  0.00143432  0.39544598    -0.11400
C766        C  0.18378245  0.49921832  0.36343522    -0.12900
C767        C  0.33638532  0.99821959  0.11083850    -0.11400
C768        C  0.33472378  0.49764923  0.14411431    -0.12900
C769        C  0.07456026  0.99513983  0.35283306    -0.11400
C770        C  0.08156534  0.99656981  0.38520913    -0.12900
C771        C  0.93584243  0.99996565  0.10109905    -0.11400
C772        C  0.92948753  0.00059565  0.13363707    -0.12900
C773        C  0.23951824  0.60859713  0.24113149    -0.14500
C774        C  0.25998908  0.62860482  0.26113077    -0.29700
H775        H  0.21856802  0.61673689  0.22154249     0.14500
H776        H  0.28031413  0.61968650  0.28091881     0.15100
C777        C  0.24233185  0.86550948  0.26499675    -0.14500
C778        C  0.27228430  0.88322989  0.25799371    -0.29700
H779        H  0.21552629  0.87586583  0.27355933     0.14500
H780        H  0.29883899  0.87239751  0.24945209     0.15100
C781        C  0.24089920  0.63410587  0.99492127    -0.14500
C782        C  0.27061122  0.61521442  0.00022065    -0.29700
H783        H  0.21703053  0.62348932  0.48410819     0.14500
H784        H  0.29780481  0.62498747  0.00779361     0.15100
C785        C  0.26057001  0.87053739  0.00009024    -0.14500
C786        C  0.23689925  0.89068587  0.01679893    -0.29700
H787        H  0.27959958  0.87856801  0.47730868     0.14500
H788        H  0.21218604  0.88267955  0.03160553     0.15100
C789        C  0.49787443  0.63119650  0.24446254    -0.14500
C790        C  0.47236507  0.61369148  0.26150971    -0.29700
H791        H  0.02459001  0.61822475  0.22669012     0.14500
H792        H  0.44995995  0.62404683  0.27822200     0.15100
C793        C  0.50013788  0.86876933  0.25906840    -0.14500
C794        C  0.46929371  0.88624088  0.25205880    -0.29700
H795        H  0.03552312  0.87460080  0.26204815     0.14500
H796        H  0.44303492  0.87498292  0.24443195     0.15100
C797        C  0.01837475  0.63015006  0.00060712    -0.14500
C798        C  0.99686711  0.61059424  0.98096932    -0.29700
H799        H  0.04077115  0.62088712  0.01791993     0.14500
H800        H  0.48319074  0.62078422  0.45829156     0.15100
C801        C  0.02531465  0.88436562  0.99814997    -0.14500
C802        C  0.99500521  0.86742144  0.00694173    -0.29700
H803        H  0.05118354  0.87266940  0.98928903     0.14500
H804        H  0.46635203  0.88103232  0.51332797     0.15100
Zn805      Zn  0.03257551  0.72491667  0.53693601     1.49700
Zn806      Zn  0.47135724  0.72219608  0.97280091     1.49400
Zn807      Zn  0.46529204  0.77624232  0.53600127     1.49100
Zn808      Zn  0.03082066  0.77541440  0.97101381     1.49500
O809        O  0.99915260  0.74836999  0.50401484    -1.82200
O810        O  0.02613941  0.67926310  0.52765619    -0.72900
O811        O  0.41503534  0.72737819  0.98438455    -0.72700
O812        O  0.47466654  0.77082430  0.59099649    -0.72200
O813        O  0.48780405  0.67793320  0.98325646    -0.72900
O814        O  0.02168845  0.73333994  0.59103867    -0.72500
O815        O  0.41116166  0.76556601  0.52674515    -0.73100
O816        O  0.01915344  0.81993662  0.98309031    -0.72500
O817        O  0.47855086  0.73032455  0.91717707    -0.73200
O818        O  0.47156705  0.82119663  0.52535451    -0.72600
O819        O  0.02079322  0.76752428  0.91579091    -0.73100
O820        O  0.08669307  0.76977328  0.98121510    -0.73000
O821        O  0.08737480  0.73597919  0.52855129    -0.72800
C822        C  0.00599457  0.66331403  0.50556174     0.79000
C823        C  0.39475444  0.74645154  0.50544968     0.79500
C824        C  0.99805786  0.75072411  0.60808542     0.78500
C825        C  0.99420216  0.83334593  0.50663419     0.78800
C826        C  0.99971846  0.74857739  0.89828812     0.80000
C827        C  0.10362626  0.75390379  0.50614101     0.79000
Zn828      Zn  0.03039602  0.77483391  0.78523038     1.49700
Zn829      Zn  0.46564066  0.72516069  0.78497394     1.49400
Zn830      Zn  0.46601472  0.77838446  0.72242985     1.49100
Zn831      Zn  0.03011351  0.72512188  0.71922356     1.49500
O832        O  0.49723431  0.75103129  0.75342857    -1.82200
O833        O  0.02007603  0.76768777  0.84007096    -0.72900
O834        O  0.41083880  0.73493282  0.77458358    -0.72700
O835        O  0.47678288  0.82281253  0.73508342    -0.72200
O836        O  0.47558186  0.73165564  0.84068790    -0.72900
O837        O  0.02321674  0.81996728  0.77422721    -0.72500
O838        O  0.41058635  0.77094330  0.73135590    -0.73100
O839        O  0.02104817  0.73370108  0.66561827    -0.72500
O840        O  0.47389994  0.68004270  0.77178389    -0.73200
O841        O  0.47535816  0.77188495  0.66710642    -0.72600
O842        O  0.02035333  0.68071419  0.72590354    -0.73100
O843        O  0.08522430  0.73069710  0.72892733    -0.73000
O844        O  0.08520565  0.76414783  0.77585657    -0.72800
C845        C  0.49772571  0.74968783  0.85831463     0.79000
C846        C  0.39322854  0.75293418  0.75285799     0.79500
C847        C  0.50095318  0.83588421  0.75599432     0.78500
C848        C  0.49710169  0.75340072  0.64923726     0.78800
C849        C  0.49478889  0.66621917  0.74793290     0.80000
C850        C  0.10268493  0.74676906  0.75277933     0.79000
Zn851      Zn  0.28438600  0.77491398  0.97146501     1.49700
Zn852      Zn  0.21961688  0.77995473  0.53635222     1.49400
Zn853      Zn  0.21655059  0.72939812  0.97131199     1.49100
Zn854      Zn  0.27864429  0.72346566  0.53517324     1.49500
O855        O  0.24915426  0.75167005  0.50379591    -1.82200
O856        O  0.27733902  0.82032696  0.98084079    -0.72900
O857        O  0.16287620  0.77246104  0.52775353    -0.72700
O858        O  0.22454725  0.73712641  0.91702588    -0.72200
O859        O  0.23250526  0.82494753  0.52416187    -0.72900
O860        O  0.27566991  0.76634857  0.91659050    -0.72500
O861        O  0.16302927  0.73974856  0.98225927    -0.73100
O862        O  0.26818149  0.67940838  0.51993969    -0.72500
O863        O  0.23044559  0.77185713  0.59164347    -0.73200
O864        O  0.22224447  0.68413480  0.97872018    -0.72600
O865        O  0.26609565  0.72930640  0.59048094    -0.73100
O866        O  0.33512597  0.73012294  0.52752509    -0.73000
O867        O  0.33865632  0.76444510  0.98207974    -0.72800
C868        C  0.25524991  0.83657131  0.50071672     0.79000
C869        C  0.14494044  0.75484884  0.50546928     0.79500
C870        C  0.24996778  0.75149172  0.89960479     0.78500
C871        C  0.24524054  0.66718458  0.49702087     0.78800
C872        C  0.24791266  0.75022976  0.60842536     0.80000
C873        C  0.35344154  0.74659284  0.50491314     0.79000
Zn874      Zn  0.27673193  0.77684140  0.72290300     1.49700
Zn875      Zn  0.21869076  0.72102781  0.72166863     1.49400
Zn876      Zn  0.28152949  0.72564313  0.78678612     1.49100
Zn877      Zn  0.21409849  0.77212884  0.78769936     1.49500
O878        O  0.24779091  0.74881643  0.75426788    -1.82200
O879        O  0.26545184  0.77035866  0.66755942    -0.72900
O880        O  0.23042564  0.67623538  0.73466965    -0.72700
O881        O  0.33527751  0.73453325  0.77484012    -0.72200
O882        O  0.22984787  0.72839725  0.66624082    -0.72900
O883        O  0.33319202  0.77015289  0.73125067    -0.72500
O884        O  0.27357274  0.68032737  0.77926442    -0.73100
O885        O  0.22318797  0.76501909  0.84213556    -0.72500
O886        O  0.16236849  0.72888431  0.73044315    -0.73200
O887        O  0.27473850  0.73548944  0.84150589    -0.72600
O888        O  0.16066318  0.76262735  0.77722543    -0.73100
O889        O  0.21887008  0.81708407  0.77968668    -0.73000
O890        O  0.26403125  0.82102953  0.73711874    -0.72800
C891        C  0.24761460  0.74963412  0.64952123     0.79000
C892        C  0.25276227  0.66406468  0.75820362     0.79500
C893        C  0.35172604  0.75261916  0.75285297     0.78500
C894        C  0.24941461  0.75076071  0.85902798     0.78800
C895        C  0.14407494  0.74581091  0.75352372     0.80000
C896        C  0.24015569  0.83317599  0.75956854     0.79000
N897        N  0.98513578  0.96380383  0.52561206    -0.34700
N898        N  0.04739945  0.96442835  0.96632745    -0.55300
N899        N  0.03580550  0.53114693  0.95878565    -0.34700
N900        N  0.97707148  0.53119257  0.51779909    -0.55300
C901        C  0.00038701  0.93526390  0.52953649     0.28900
C902        C  0.96697334  0.97105317  0.55751987     0.28900
C903        C  0.06457358  0.52645830  0.93479264     0.28900
C904        C  0.03160130  0.56195572  0.96377155     0.28900
C905        C  0.04298846  0.93359998  0.96862696     0.37500
C906        C  0.06577025  0.96918370  0.93424728     0.37500
C907        C  0.94960957  0.52580289  0.54264533     0.37500
C908        C  0.97349835  0.56099700  0.50817705     0.37500
C909        C  0.99148056  0.92408792  0.56399221    -0.20400
C910        C  0.97058272  0.94664943  0.58166807    -0.20000
C911        C  0.07904657  0.55453783  0.92421789    -0.20000
C912        C  0.05845806  0.57698635  0.94278927    -0.20000
C913        C  0.06023320  0.91875335  0.93889284    -0.21100
C914        C  0.07491686  0.94129801  0.91733624    -0.21100
C915        C  0.92818285  0.55233039  0.54885835    -0.21100
C916        C  0.94327561  0.57463742  0.52688945    -0.21100
C917        C  0.02153338  0.91871592  0.50253977    -0.16400
C918        C  0.94644239  0.99861845  0.56533835    -0.16400
C919        C  0.99869290  0.57652733  0.48467156    -0.16400
C920        C  0.07258102  0.99818115  0.91868283    -0.16400
H921        H  0.99979978  0.90217588  0.57550225     0.16500
H922        H  0.95964520  0.94522037  0.60934678     0.16500
H923        H  0.10134958  0.55835675  0.90431091     0.16500
H924        H  0.06194480  0.60156575  0.93998598     0.16500
H925        H  0.06170482  0.89432333  0.93283377     0.14800
H926        H  0.09044444  0.93760779  0.89187834     0.14800
H927        H  0.90491627  0.55549902  0.56807942     0.14800
H928        H  0.93372706  0.59835606  0.52560687     0.14800
H929        H  0.98414487  0.97627825  0.50131912     0.28000
H930        H  0.01675026  0.51438642  0.96642039     0.28000
N931        N  0.00965754  0.96578791  0.77249227    -0.34700
N932        N  0.94970526  0.96791138  0.71871313    -0.55300
N933        N  0.94993043  0.53535481  0.72191697    -0.34700
N934        N  0.01009818  0.53323496  0.77577927    -0.55300
C935        C  0.99581483  0.93676789  0.77452459     0.28900
C936        C  0.02902624  0.97114596  0.80412536     0.28900
C937        C  0.93320125  0.53142705  0.68866767     0.28900
C938        C  0.95557402  0.56591098  0.72661869     0.28900
C939        C  0.95325873  0.93698850  0.72027446     0.37500
C940        C  0.92883288  0.97389296  0.68850987     0.37500
C941        C  0.03897800  0.52767168  0.79919812     0.37500
C942        C  0.00487419  0.56408477  0.77571444     0.37500
C943        C  0.00620417  0.92389845  0.80776574    -0.20000
C944        C  0.02728335  0.94538701  0.82617598    -0.20000
C945        C  0.92653717  0.55993017  0.67295394    -0.20000
C946        C  0.93997875  0.58172547  0.69724051    -0.20000
C947        C  0.93317476  0.92319959  0.69177734    -0.21100
C948        C  0.91754807  0.94661355  0.67177901    -0.21100
C949        C  0.05301772  0.55521271  0.81309947    -0.21100
C950        C  0.03110010  0.57822315  0.79860924    -0.21100
C951        C  0.97454136  0.92119006  0.74703447    -0.16400
C952        C  0.04799492  0.99857999  0.81415457    -0.16400
C953        C  0.97743927  0.57990222  0.75466732    -0.16400
C954        C  0.92454928  0.00308961  0.67260035    -0.16400
H955        H  0.99869508  0.90154605  0.81820044     0.16500
H956        H  0.03876107  0.94260962  0.85336868     0.16500
H957        H  0.91387191  0.56451464  0.64638437     0.16500
H958        H  0.94045279  0.60627673  0.69256451     0.16500
H959        H  0.93088622  0.89893376  0.68518649     0.14800
H960        H  0.90098896  0.94394224  0.64684333     0.14800
H961        H  0.07525263  0.55835422  0.83328740     0.14800
H962        H  0.03407207  0.60255997  0.80452997     0.14800
H963        H  0.00883578  0.98013564  0.74971732     0.28000
H964        H  0.95682355  0.51834731  0.74060017     0.28000
N965        N  0.22108440  0.97126613  0.98167410    -0.34700
N966        N  0.23062890  0.53772186  0.97533479    -0.55300
N967        N  0.29513429  0.53533490  0.53140360    -0.34700
N968        N  0.28252093  0.96895894  0.53838776    -0.55300
C969        C  0.19436436  0.97752937  0.95617922     0.28900
C970        C  0.21723529  0.94147115  0.99148415     0.28900
C971        C  0.28740002  0.56588200  0.53001695     0.28900
C972        C  0.31044619  0.53003520  0.56487340     0.28900
C973        C  0.21123182  0.53223773  0.94385571     0.37500
C974        C  0.24522442  0.56624805  0.97235235     0.37500
C975        C  0.27733972  0.93829955  0.53448040     0.37500
C976        C  0.31141425  0.97277541  0.56227374     0.37500
C977        C  0.17282692  0.95149922  0.94986525    -0.20000
C978        C  0.18687161  0.92886183  0.97246063    -0.20000
C979        C  0.29892244  0.58021393  0.56241762    -0.20000
C980        C  0.31353623  0.55764464  0.58435072    -0.20000
C981        C  0.21285792  0.55773741  0.92122884    -0.21100
C982        C  0.23447220  0.57920527  0.93924420    -0.21100
C983        C  0.30336319  0.92247059  0.55589106    -0.21100
C984        C  0.32501400  0.94434713  0.57344104    -0.21100
C985        C  0.19263919  0.00450777  0.93488524    -0.16400
C986        C  0.24756061  0.92465658  0.51413497    -0.16400
C987        C  0.32085170  0.00121707  0.57878924    -0.16400
C988        C  0.27119775  0.58135907  0.49993054    -0.16400
H989        H  0.15062081  0.94869863  0.92969096     0.16500
H990        H  0.17725120  0.90529312  0.97304131     0.16500
H991        H  0.29663689  0.60437876  0.56982531     0.16500
H992        H  0.32493109  0.56125945  0.61168186     0.16500
H993        H  0.20020309  0.56050615  0.89429730     0.14800
H994        H  0.24195004  0.60156378  0.92880473     0.14800
H995        H  0.30594486  0.89781312  0.55918693     0.14800
H996        H  0.34760588  0.93993187  0.59284660     0.14800
H997        H  0.24361206  0.98538506  0.98779333     0.28000
H998        H  0.29263607  0.51944182  0.50986808     0.28000
N999        N  0.27373135  0.53216578  0.72353871    -0.34700
N1000       N  0.21721768  0.53042797  0.78024129    -0.55300
N1001       N  0.22677526  0.96318493  0.78414187    -0.34700
N1002       N  0.28669687  0.96562897  0.72918693    -0.55300
C1003       C  0.26838937  0.56279124  0.72907687     0.28900
C1004       C  0.30461988  0.52842279  0.70183460     0.28900
C1005       C  0.21028534  0.96942527  0.81716628     0.28900
C1006       C  0.24201763  0.93450314  0.78604311     0.28900
C1007       C  0.21262508  0.56032815  0.77127869     0.37500
C1008       C  0.19136730  0.52440639  0.80651200     0.37500
C1009       C  0.30717665  0.97107394  0.69855323     0.37500
C1010       C  0.28169810  0.93485370  0.72975250     0.37500
C1011       C  0.29645075  0.57863761  0.71054017    -0.20000
C1012       C  0.31927836  0.55693458  0.69344105    -0.20000
C1013       C  0.21457211  0.94411408  0.83990570    -0.20000
C1014       C  0.23443893  0.92209045  0.82019570    -0.20000
C1015       C  0.18324706  0.57336930  0.79180661    -0.21100
C1016       C  0.17001995  0.55065794  0.81440719    -0.21100
C1017       C  0.31630359  0.94365620  0.68051253    -0.21100
C1018       C  0.29996181  0.92072400  0.70009642    -0.21100
C1019       C  0.23746983  0.57676657  0.74824988    -0.16400
C1020       C  0.31670122  0.50037329  0.68551349    -0.16400
C1021       C  0.26241488  0.91913736  0.75759814    -0.16400
C1022       C  0.19086472  0.49715338  0.82714833    -0.16400
H1023       H  0.29976710  0.60327925  0.70854260     0.16500
H1024       H  0.34333819  0.56160802  0.67597905     0.16500
H1025       H  0.20457725  0.94170907  0.86793372     0.16500
H1026       H  0.24309394  0.89974602  0.83022539     0.16500
H1027       H  0.17360800  0.59710365  0.79184829     0.14800
H1028       H  0.14817519  0.55338737  0.83521074     0.14800
H1029       H  0.33280832  0.94045379  0.65566285     0.14800
H1030       H  0.30129248  0.89646519  0.69300164     0.14800
H1031       H  0.25453154  0.51503541  0.72953536     0.28000
H1032       H  0.22523464  0.97660568  0.76064773     0.28000
C1033       C  0.17771036  0.00167755  0.89797773    -0.11400
C1034       C  0.17729605  0.49955056  0.86466467    -0.12900
C1035       C  0.33409357  0.00075994  0.61629949    -0.11400
C1036       C  0.33310180  0.50155537  0.64922384    -0.12900
C1037       C  0.07055575  0.99824047  0.84741010    -0.11400
C1038       C  0.07901685  0.99869244  0.87948966    -0.12900
C1039       C  0.92780533  0.00129788  0.60067458    -0.11400
C1040       C  0.92074140  0.00327801  0.63303375    -0.12900
C1041       C  0.23176567  0.61062895  0.74518010    -0.14500
C1042       C  0.25579523  0.63029480  0.76147762    -0.29700
H1043       H  0.20730946  0.61915084  0.73013434     0.14500
H1044       H  0.27895746  0.62109911  0.77788921     0.15100
C1045       C  0.23646486  0.86675396  0.76263494    -0.14500
C1046       C  0.26623715  0.88504624  0.75761810    -0.29700
H1047       H  0.20896331  0.87657172  0.76989079     0.14500
H1048       H  0.29359361  0.87473945  0.75075836     0.15100
C1049       C  0.24357832  0.63356338  0.49308235    -0.14500
C1050       C  0.27368305  0.61551657  0.50005103    -0.29700
H1051       H  0.21341640  0.62479578  0.98762192     0.14500
H1052       H  0.29992454  0.62598698  0.50930372     0.15100
C1053       C  0.25953590  0.87033200  0.49762048    -0.14500
C1054       C  0.24072315  0.89111118  0.51856178    -0.29700
H1055       H  0.28394581  0.87929910  0.98386206     0.14500
H1056       H  0.22038002  0.88380226  0.53906888     0.15100
C1057       C  0.49466755  0.63245246  0.74461781    -0.14500
C1058       C  0.46874668  0.61500656  0.76112483    -0.29700
H1059       H  0.02228067  0.62151941  0.72616578     0.14500
H1060       H  0.44590698  0.62537302  0.77725864     0.15100
C1061       C  0.50319569  0.86972621  0.75688800    -0.14500
C1062       C  0.47284569  0.88773395  0.74996903    -0.29700
H1063       H  0.02990257  0.87898877  0.76074671     0.14500
H1064       H  0.44613432  0.87689111  0.74299619     0.15100
C1065       C  0.00925695  0.62940333  0.50725516    -0.14500
C1066       C  0.99447165  0.61048086  0.48158657    -0.29700
H1067       H  0.02488326  0.61954845  0.53014347     0.14500
H1068       H  0.47967943  0.62081308  0.96423850     0.15100
C1069       C  0.02347316  0.88440514  0.50370008    -0.14500
C1070       C  0.99260793  0.86717924  0.50903460    -0.29700
H1071       H  0.05028040  0.87296332  0.49741412     0.14500
H1072       H  0.47047136  0.88101713  0.01532792     0.15100
Zn1073     Zn  0.53496333  0.22836102  0.03696125     1.49700
Zn1074     Zn  0.96959721  0.22071746  0.47088042     1.49400
Zn1075     Zn  0.96737857  0.27387457  0.03499296     1.49100
Zn1076     Zn  0.52854102  0.27735332  0.47133817     1.49500
O1077       O  0.50076969  0.25067791  0.00382575    -1.82200
O1078       O  0.53224886  0.18289771  0.02620415    -0.72900
O1079       O  0.91300817  0.22738452  0.48048812    -0.72700
O1080       O  0.97626106  0.26703718  0.09008536    -0.72200
O1081       O  0.98301738  0.17594106  0.48191007    -0.72900
O1082       O  0.52247110  0.23500333  0.09092499    -0.72500
O1083       O  0.91312993  0.26389069  0.02416296    -0.73100
O1084       O  0.51702301  0.32203277  0.48283526    -0.72500
O1085       O  0.98001144  0.22830352  0.41580917    -0.73200
O1086       O  0.97454498  0.31908486  0.02558127    -0.72600
O1087       O  0.51916441  0.26847460  0.41628891    -0.73100
O1088       O  0.58431133  0.27174770  0.48120275    -0.73000
O1089       O  0.58915482  0.24117370  0.02986443    -0.72800
C1090       C  0.51263106  0.16619170  0.00452518     0.79000
C1091       C  0.89680902  0.24494063  0.00253864     0.79500
C1092       C  0.49867825  0.25216133  0.10803637     0.78500
C1093       C  0.49629747  0.33545966  0.00583560     0.78800
C1094       C  0.49850004  0.24917822  0.39889622     0.80000
C1095       C  0.60537429  0.25692102  0.00523245     0.79000
Zn1096     Zn  0.53155641  0.27438602  0.28549055     1.49700
Zn1097     Zn  0.97004146  0.22057043  0.28429482     1.49400
Zn1098     Zn  0.96898918  0.27372955  0.22197628     1.49100
Zn1099     Zn  0.52997363  0.22421781  0.21902018     1.49500
O1100       O  0.00109900  0.24672431  0.25242767    -1.82200
O1101       O  0.52122343  0.26659080  0.34054684    -0.72900
O1102       O  0.91422780  0.22891458  0.27437683    -0.72700
O1103       O  0.98017165  0.31839662  0.23385055    -0.72200
O1104       O  0.97980645  0.22822953  0.33976067    -0.72900
O1105       O  0.52264073  0.31986795  0.27642714    -0.72500
O1106       O  0.91385991  0.26588961  0.23236401    -0.73100
O1107       O  0.51965248  0.23295090  0.16538654    -0.72500
O1108       O  0.98088699  0.17562414  0.27186021    -0.73200
O1109       O  0.97701306  0.26686684  0.16636969    -0.72600
O1110       O  0.51991064  0.17953955  0.22673119    -0.73100
O1111       O  0.58553307  0.23053276  0.22726300    -0.73000
O1112       O  0.58657916  0.26434347  0.27393894    -0.72800
C1113       C  0.00150145  0.24660416  0.35741069     0.79000
C1114       C  0.89647457  0.24740572  0.25329259     0.79500
C1115       C  0.00501595  0.33132881  0.25415985     0.78500
C1116       C  0.99886395  0.24875749  0.14805303     0.78800
C1117       C  0.00220050  0.16222634  0.24798195     0.80000
C1118       C  0.60359411  0.24705181  0.25031603     0.79000
Zn1119     Zn  0.78292998  0.27362956  0.46818542     1.49700
Zn1120     Zn  0.72253661  0.27963618  0.03459241     1.49400
Zn1121     Zn  0.71375554  0.22965310  0.46824856     1.49100
Zn1122     Zn  0.78049614  0.22263456  0.03178588     1.49500
O1123       O  0.75111828  0.25147913  0.00117097    -1.82200
O1124       O  0.77694221  0.31918096  0.47686012    -0.72900
O1125       O  0.66549511  0.27314779  0.02735660    -0.72700
O1126       O  0.72179708  0.23728406  0.41377574    -0.72200
O1127       O  0.73518922  0.32427891  0.02226770    -0.72900
O1128       O  0.77463995  0.26441331  0.41355174    -0.72500
O1129       O  0.66034848  0.24004702  0.48022612    -0.73100
O1130       O  0.76824815  0.17882505  0.01663546    -0.72500
O1131       O  0.73467363  0.27154834  0.08946801    -0.73200
O1132       O  0.71950920  0.18431924  0.47473620    -0.72600
O1133       O  0.76960160  0.22863841  0.08742801    -0.73100
O1134       O  0.83689154  0.22850819  0.02340644    -0.73000
O1135       O  0.83694541  0.26256401  0.47879233    -0.72800
C1136       C  0.75782231  0.33607009  0.99891357     0.79000
C1137       C  0.64673082  0.25712230  0.00407349     0.79500
C1138       C  0.74838852  0.25034258  0.39646150     0.78500
C1139       C  0.74410212  0.16706505  0.99455081     0.78800
C1140       C  0.75219919  0.24974252  0.10580562     0.80000
C1141       C  0.85548161  0.24531393  0.00140413     0.79000
Zn1142     Zn  0.78141248  0.27417019  0.22114569     1.49700
Zn1143     Zn  0.71972508  0.22052624  0.21797305     1.49400
Zn1144     Zn  0.78189863  0.22248420  0.28450963     1.49100
Zn1145     Zn  0.71629873  0.27152543  0.28380595     1.49500
O1146       O  0.74991974  0.24702283  0.25138879    -1.82200
O1147       O  0.77154536  0.26813591  0.16533605    -0.72900
O1148       O  0.73028913  0.17513653  0.22935627    -0.72700
O1149       O  0.83726349  0.22951788  0.27442616    -0.72200
O1150       O  0.73186600  0.22866249  0.16308562    -0.72900
O1151       O  0.83713542  0.26558837  0.23136312    -0.72500
O1152       O  0.77137192  0.17750543  0.27595902    -0.73100
O1153       O  0.72409730  0.26457878  0.33830043    -0.72500
O1154       O  0.66311037  0.22909411  0.22679166    -0.73200
O1155       O  0.77330456  0.23246640  0.33910891    -0.72600
O1156       O  0.66234150  0.26315956  0.27318561    -0.73100
O1157       O  0.72343186  0.31624845  0.27573632    -0.73000
O1158       O  0.77052925  0.31888403  0.23504781    -0.72800
C1159       C  0.75194974  0.24875572  0.14685847     0.79000
C1160       C  0.75111282  0.16205139  0.25349148     0.79500
C1161       C  0.85478569  0.24749254  0.25299628     0.78500
C1162       C  0.74868563  0.24909524  0.35589612     0.78800
C1163       C  0.64518255  0.24629567  0.24991790     0.80000
C1164       C  0.74624108  0.33174695  0.25651747     0.79000
N1165       N  0.49107481  0.46601147  0.02599226    -0.34700
N1166       N  0.54853726  0.46576339  0.46854855    -0.55300
N1167       N  0.53539393  0.03251984  0.46058171    -0.34700
N1168       N  0.48405609  0.03309466  0.02112775    -0.55300
C1169       C  0.50556426  0.43710421  0.02852591     0.28900
C1170       C  0.47400487  0.47278833  0.05857335     0.28900
C1171       C  0.56392064  0.02763163  0.43630667     0.28900
C1172       C  0.53118038  0.06339880  0.46507395     0.28900
C1173       C  0.54385720  0.43499872  0.47117583     0.37500
C1174       C  0.56686236  0.47013793  0.43636170     0.37500
C1175       C  0.45710083  0.02739308  0.04637443     0.37500
C1176       C  0.48104716  0.06321791  0.01284193     0.37500
C1177       C  0.49755318  0.42537456  0.06295955    -0.20400
C1178       C  0.47762700  0.44781767  0.08189401    -0.20000
C1179       C  0.57813866  0.05561143  0.42508752    -0.20000
C1180       C  0.55773836  0.07822492  0.44355599    -0.20000
C1181       C  0.56099994  0.41981209  0.44161700    -0.21100
C1182       C  0.57577317  0.44207623  0.41974354    -0.21100
C1183       C  0.43668816  0.05411710  0.05439609    -0.21100
C1184       C  0.45185560  0.07683297  0.03309169    -0.21100
C1185       C  0.52454621  0.42059699  0.00000385    -0.16400
C1186       C  0.45402176  0.50031237  0.06752765    -0.16400
C1187       C  0.50520831  0.07890208  0.98844780    -0.16400
C1188       C  0.57335418  0.49891128  0.42014832    -0.16400
H1189       H  0.50550376  0.40303710  0.07351295     0.16500
H1190       H  0.46716145  0.44591098  0.10978389     0.16500
H1191       H  0.60028264  0.05924689  0.40496974     0.16500
H1192       H  0.56123512  0.10278228  0.44050654     0.16500
H1193       H  0.56206184  0.39533925  0.43573705     0.14800
H1194       H  0.59073039  0.43809805  0.39401627     0.14800
H1195       H  0.41390277  0.05708498  0.07418025     0.14800
H1196       H  0.44286319  0.10072948  0.03305249     0.14800
H1197       H  0.48934172  0.47895686  0.00213324     0.28000
H1198       H  0.51675426  0.01594781  0.46885394     0.28000
N1199       N  0.50491917  0.46542246  0.27683560    -0.34700
N1200       N  0.44596648  0.46712974  0.22223222    -0.55300
N1201       N  0.44812371  0.03453919  0.22392199    -0.34700
N1202       N  0.50625385  0.03293062  0.27940928    -0.55300
C1203       C  0.49078070  0.43654249  0.27946288     0.28900
C1204       C  0.52512597  0.47083803  0.30792390     0.28900
C1205       C  0.43410963  0.03006452  0.18959682     0.28900
C1206       C  0.45415920  0.06512232  0.22801902     0.28900
C1207       C  0.44902938  0.43620724  0.22456729     0.37500
C1208       C  0.42790524  0.47291181  0.19031726     0.37500
C1209       C  0.53474315  0.02762063  0.30335866     0.37500
C1210       C  0.50024629  0.06371703  0.27973323     0.37500
C1211       C  0.50166904  0.42387643  0.31268596    -0.20000
C1212       C  0.52359358  0.44527957  0.33034153    -0.20000
C1213       C  0.42960777  0.05828193  0.17251001    -0.20000
C1214       C  0.44144316  0.08044181  0.19706628    -0.20000
C1215       C  0.43083322  0.42221148  0.19500430    -0.21100
C1216       C  0.41767200  0.44550621  0.17318584    -0.21100
C1217       C  0.54750548  0.05525544  0.31821217    -0.21100
C1218       C  0.52522166  0.07802153  0.30375068    -0.21100
C1219       C  0.46967114  0.42066971  0.25207754    -0.16400
C1220       C  0.54465975  0.49819204  0.31710504    -0.16400
C1221       C  0.47423111  0.07945874  0.25705302    -0.16400
C1222       C  0.42557499  0.50196698  0.17365122    -0.16400
H1223       H  0.49429090  0.40158398  0.32339420     0.16500
H1224       H  0.53590276  0.44257348  0.35724278     0.16500
H1225       H  0.41932868  0.06246467  0.14490681     0.16500
H1226       H  0.44295384  0.10483927  0.19164058     0.16500
H1227       H  0.42887807  0.39788818  0.18861061     0.14800
H1228       H  0.40363994  0.44264061  0.14685136     0.14800
H1229       H  0.56931174  0.05860604  0.33879096     0.14800
H1230       H  0.52746355  0.10235769  0.31003661     0.14800
H1231       H  0.50409403  0.47953715  0.25386082     0.28000
H1232       H  0.45297775  0.01790766  0.24367739     0.28000
N1233       N  0.72760902  0.47046825  0.47163997    -0.34700
N1234       N  0.73503194  0.03750088  0.46735795    -0.55300
N1235       N  0.79559562  0.03433150  0.02506049    -0.34700
N1236       N  0.78323341  0.46785124  0.03264750    -0.55300
C1237       C  0.70046752  0.47672471  0.44655382     0.28900
C1238       C  0.72243521  0.44124188  0.48311301     0.28900
C1239       C  0.78788455  0.06492637  0.02443659     0.28900
C1240       C  0.81431120  0.02887554  0.05685238     0.28900
C1241       C  0.71699417  0.03181111  0.43519268     0.37500
C1242       C  0.74805433  0.06660116  0.46536921     0.37500
C1243       C  0.77736995  0.43724332  0.02937664     0.37500
C1244       C  0.81427302  0.47147023  0.05384061     0.37500
C1245       C  0.67791929  0.45110023  0.44151174    -0.20000
C1246       C  0.69143109  0.42881628  0.46492851    -0.20000
C1247       C  0.80311176  0.07912687  0.05544572    -0.20000
C1248       C  0.81985348  0.05645347  0.07578590    -0.20000
C1249       C  0.71808528  0.05757950  0.41298920    -0.21100
C1250       C  0.73780377  0.07959910  0.43212893    -0.21100
C1251       C  0.80497977  0.42126245  0.04872112    -0.21100
C1252       C  0.82847032  0.44297511  0.06403569    -0.21100
C1253       C  0.69837181  0.50367240  0.42532080    -0.16400
C1254       C  0.74605849  0.42375374  0.01116177    -0.16400
C1255       C  0.82553923  0.49980712  0.06937236    -0.16400
C1256       C  0.76844681  0.08063124  0.99623045    -0.16400
H1257       H  0.65482437  0.44852978  0.42222354     0.16500
H1258       H  0.68057228  0.40570074  0.46714804     0.16500
H1259       H  0.80189181  0.10328451  0.06307713     0.16500
H1260       H  0.83424329  0.05995711  0.10177751     0.16500
H1261       H  0.70593615  0.06029218  0.38582273     0.14800
H1262       H  0.74416876  0.10243726  0.42246758     0.14800
H1263       H  0.80761463  0.39662184  0.05207762     0.14800
H1264       H  0.85274225  0.43843803  0.08141827     0.14800
H1265       H  0.75107661  0.48402818  0.47646449     0.28000
H1266       H  0.79059134  0.01844663  0.00398409     0.28000
N1267       N  0.77550304  0.03033499  0.21220572    -0.34700
N1268       N  0.72101849  0.02915642  0.27051970    -0.55300
N1269       N  0.73276449  0.46213983  0.27561022    -0.34700
N1270       N  0.79040095  0.46392190  0.21892447    -0.55300
C1271       C  0.77054645  0.06095747  0.21799010     0.28900
C1272       C  0.80727155  0.02643262  0.19176846     0.28900
C1273       C  0.71760551  0.46912460  0.30897764     0.28900
C1274       C  0.74916170  0.43392910  0.27821960     0.28900
C1275       C  0.71519148  0.05863345  0.26030670     0.37500
C1276       C  0.69530563  0.02319505  0.29695731     0.37500
C1277       C  0.80874084  0.46917600  0.18701385     0.37500
C1278       C  0.78407559  0.43331260  0.21943089     0.37500
C1279       C  0.79959373  0.07670653  0.20089069    -0.20000
C1280       C  0.82279746  0.05487626  0.18437311    -0.20000
C1281       C  0.72422639  0.44487455  0.33286371    -0.20000
C1282       C  0.74409929  0.42268271  0.31339387    -0.20000
C1283       C  0.68518753  0.07143756  0.28013438    -0.21100
C1284       C  0.67280306  0.04903267  0.30365013    -0.21100
C1285       C  0.81466449  0.44178784  0.16768404    -0.21100
C1286       C  0.79878606  0.41907353  0.18808582    -0.21100
C1287       C  0.73949472  0.07499379  0.23670561    -0.16400
C1288       C  0.81930493  0.99834133  0.17552644    -0.16400
C1289       C  0.76761401  0.41788437  0.24910934    -0.16400
C1290       C  0.69589694  0.99653325  0.31867927    -0.16400
H1291       H  0.80343938  0.10136631  0.19991992     0.16500
H1292       H  0.84779141  0.05939927  0.16808922     0.16500
H1293       H  0.71564016  0.44322128  0.36141773     0.16500
H1294       H  0.75409490  0.40092629  0.32408603     0.16500
H1295       H  0.67449454  0.09484739  0.27898984     0.14800
H1296       H  0.65063246  0.05169893  0.32414747     0.14800
H1297       H  0.82907023  0.43841126  0.14168886     0.14800
H1298       H  0.79835215  0.39487063  0.18065779     0.14800
H1299       H  0.75568535  0.01339266  0.21729714     0.28000
H1300       H  0.72926633  0.47460112  0.25151118     0.28000
C1301       C  0.68317757  0.50100413  0.38853757    -0.11400
C1302       C  0.68227961  0.99935749  0.35611412    -0.12900
C1303       C  0.84003507  0.49908121  0.10642230    -0.11400
C1304       C  0.83753643  0.99952551  0.14009570    -0.12900
C1305       C  0.56887443  0.49778614  0.34919457    -0.11400
C1306       C  0.57881254  0.49877430  0.38083491    -0.12900
C1307       C  0.43372013  0.50141149  0.10203570    -0.11400
C1308       C  0.42461424  0.50200151  0.13393837    -0.12900
C1309       C  0.73412908  0.10887440  0.23356866    -0.14500
C1310       C  0.75286465  0.12812592  0.25614070    -0.29700
H1311       H  0.71574256  0.11768501  0.21208097     0.14500
H1312       H  0.77119835  0.11840788  0.27717076     0.15100
C1313       C  0.74332060  0.36545775  0.25921106    -0.14500
C1314       C  0.77196397  0.38378594  0.24991352    -0.29700
H1315       H  0.71673463  0.37543269  0.26899912     0.14500
H1316       H  0.79829761  0.37347709  0.23993590     0.15100
C1317       C  0.74119707  0.13341692  0.99101487    -0.14500
C1318       C  0.77126431  0.11485033  0.99629589    -0.29700
H1319       H  0.71265661  0.12439590  0.48128248     0.14500
H1320       H  0.79828586  0.12503238  0.00365262     0.15100
C1321       C  0.76182246  0.36979490  0.99638440    -0.14500
C1322       C  0.74003149  0.39010934  0.01510050    -0.29700
H1323       H  0.78573476  0.37780334  0.47821914     0.14500
H1324       H  0.71697890  0.38234181  0.03240702     0.15100
C1325       C  0.00360121  0.12847769  0.24502628    -0.14500
C1326       C  0.97983229  0.11040622  0.26340801    -0.29700
H1327       H  0.52100086  0.12003672  0.22879715     0.14500
H1328       H  0.95834567  0.12015279  0.28170198     0.15100
C1329       C  0.00845014  0.36504779  0.25448738    -0.14500
C1330       C  0.97870083  0.38381656  0.24835992    -0.29700
H1331       H  0.52636552  0.37963719  0.26601497     0.14500
H1332       H  0.95136990  0.37375896  0.24197316     0.15100
C1333       C  0.51888779  0.13254386  0.00555107    -0.14500
C1334       C  0.49928588  0.11260245  0.98467915    -0.29700
H1335       H  0.53997121  0.12370806  0.02463695     0.14500
H1336       H  0.97555079  0.11912123  0.45997712     0.15100
C1337       C  0.52580152  0.38626081  0.00045908    -0.14500
C1338       C  0.49515681  0.36931077  0.00789944    -0.29700
H1339       H  0.55194454  0.37461451  0.99227641     0.14500
H1340       H  0.96596371  0.37845276  0.51441994     0.15100
Zn1341     Zn  0.53226323  0.22788584  0.53689797     1.49700
Zn1342     Zn  0.97148237  0.22089577  0.97041270     1.49400
Zn1343     Zn  0.96511083  0.27351863  0.53501014     1.49100
Zn1344     Zn  0.53061437  0.27713768  0.97143277     1.49500
O1345       O  0.49867850  0.25086913  0.50378684    -1.82200
O1346       O  0.52706929  0.18218073  0.52725341    -0.72900
O1347       O  0.91526040  0.22677837  0.98102755    -0.72700
O1348       O  0.97442770  0.26780581  0.58974440    -0.72200
O1349       O  0.98680401  0.17623468  0.97989441    -0.72900
O1350       O  0.52073738  0.23565241  0.59107639    -0.72500
O1351       O  0.91082988  0.26302564  0.52528575    -0.73100
O1352       O  0.51956135  0.32184897  0.98399285    -0.72500
O1353       O  0.97950381  0.22947114  0.91518643    -0.73200
O1354       O  0.97165067  0.31859199  0.52537881    -0.72600
O1355       O  0.51948984  0.26901588  0.91651492    -0.73100
O1356       O  0.58678059  0.27060313  0.98010832    -0.73000
O1357       O  0.58680462  0.23974806  0.52865655    -0.72800
C1358       C  0.50735578  0.16576449  0.50528472     0.79000
C1359       C  0.89448208  0.24470329  0.50295248     0.79500
C1360       C  0.49753288  0.25334143  0.60823572     0.78500
C1361       C  0.49409862  0.33585134  0.50479193     0.78800
C1362       C  0.49874056  0.24966258  0.89928148     0.80000
C1363       C  0.60292190  0.25688044  0.50527388     0.79000
Zn1364     Zn  0.53026375  0.27517032  0.78593801     1.49700
Zn1365     Zn  0.96681753  0.22397084  0.78335434     1.49400
Zn1366     Zn  0.96613230  0.27682074  0.72071931     1.49100
Zn1367     Zn  0.52806503  0.22533964  0.71937552     1.49500
O1368       O  0.99801656  0.25022249  0.75194302    -1.82200
O1369       O  0.51990167  0.26787177  0.84087445    -0.72900
O1370       O  0.91133065  0.23288919  0.77309536    -0.72700
O1371       O  0.97653926  0.32156388  0.73234366    -0.72200
O1372       O  0.97724532  0.23067979  0.83897441    -0.72900
O1373       O  0.52349488  0.32061240  0.77607165    -0.72500
O1374       O  0.91079398  0.26896594  0.72997149    -0.73100
O1375       O  0.51884405  0.23454594  0.66570061    -0.72500
O1376       O  0.97671908  0.17901038  0.77012638    -0.73200
O1377       O  0.97525154  0.26942452  0.66558185    -0.72600
O1378       O  0.51679892  0.18090891  0.72628146    -0.73100
O1379       O  0.58354333  0.23038429  0.72852758    -0.73000
O1380       O  0.58481669  0.26395270  0.77539753    -0.72800
C1381       C  0.99896733  0.24902999  0.85666994     0.79000
C1382       C  0.89351704  0.25079653  0.75134962     0.79500
C1383       C  0.00054858  0.33496743  0.75315170     0.78500
C1384       C  0.99788526  0.25152510  0.64792107     0.78800
C1385       C  0.99828405  0.16565291  0.74644578     0.80000
C1386       C  0.60166550  0.24643767  0.75197030     0.79000
Zn1387     Zn  0.78496822  0.27399212  0.96825532     1.49700
Zn1388     Zn  0.71999896  0.28056168  0.53416715     1.49400
Zn1389     Zn  0.71630873  0.22912621  0.96847684     1.49100
Zn1390     Zn  0.77745494  0.22310364  0.53209587     1.49500
O1391       O  0.74848249  0.25191286  0.50116299    -1.82200
O1392       O  0.77803560  0.31944531  0.97724401    -0.72900
O1393       O  0.66289960  0.27428747  0.52647728    -0.72700
O1394       O  0.72420643  0.23702862  0.91418513    -0.72200
O1395       O  0.73396830  0.32521562  0.52164705    -0.72900
O1396       O  0.77609228  0.26536296  0.91343451    -0.72500
O1397       O  0.66281536  0.24018491  0.97984036    -0.73100
O1398       O  0.76578467  0.17951046  0.51603215    -0.72500
O1399       O  0.73104435  0.27192710  0.58932361    -0.73200
O1400       O  0.72186171  0.18359483  0.97543203    -0.72600
O1401       O  0.76478978  0.22838104  0.58749509    -0.73100
O1402       O  0.83428212  0.22914332  0.52474902    -0.73000
O1403       O  0.83924411  0.26341391  0.97898637    -0.72800
C1404       C  0.75715138  0.33638015  0.49826959     0.79000
C1405       C  0.64422541  0.25739982  0.50399677     0.79500
C1406       C  0.74991498  0.25093540  0.89661597     0.78500
C1407       C  0.74189835  0.16781283  0.49364481     0.78800
C1408       C  0.74750791  0.24960997  0.60577218     0.80000
C1409       C  0.85306994  0.24510938  0.50194980     0.79000
Zn1410     Zn  0.77717446  0.27507332  0.72038101     1.49700
Zn1411     Zn  0.71734721  0.22008152  0.71895473     1.49400
Zn1412     Zn  0.78074817  0.22379316  0.78397585     1.49100
Zn1413     Zn  0.71404738  0.27148283  0.78474149     1.49500
O1414       O  0.74732289  0.24746217  0.75150435    -1.82200
O1415       O  0.76596789  0.26871678  0.66506337    -0.72900
O1416       O  0.72866695  0.17494327  0.73156402    -0.72700
O1417       O  0.83511515  0.23222945  0.77277224    -0.72200
O1418       O  0.72849349  0.22782284  0.66343255    -0.72900
O1419       O  0.83355749  0.26792917  0.72930352    -0.72500
O1420       O  0.77192670  0.17849357  0.77614032    -0.73100
O1421       O  0.72363083  0.26503897  0.83915484    -0.72500
O1422       O  0.66095578  0.22834486  0.72844165    -0.73200
O1423       O  0.77366767  0.23380153  0.83860038    -0.72600
O1424       O  0.66029265  0.26216884  0.77514609    -0.73100
O1425       O  0.71936424  0.31627367  0.77610887    -0.73000
O1426       O  0.76521094  0.31946229  0.73416795    -0.72800
C1427       C  0.74721015  0.24864147  0.64687385     0.79000
C1428       C  0.75091370  0.16245822  0.75497837     0.79500
C1429       C  0.85189193  0.25034497  0.75102657     0.78500
C1430       C  0.74920617  0.25004129  0.85606081     0.78800
C1431       C  0.64313947  0.24535364  0.75182716     0.80000
C1432       C  0.74123044  0.33201094  0.75617937     0.79000
N1433       N  0.49074151  0.46588967  0.52537906    -0.34700
N1434       N  0.54892968  0.46609338  0.96897478    -0.55300
N1435       N  0.54039968  0.03365459  0.96367489    -0.34700
N1436       N  0.48219612  0.03326114  0.52026906    -0.55300
C1437       C  0.50523982  0.43701594  0.52819395     0.28900
C1438       C  0.47363096  0.47283581  0.55789404     0.28900
C1439       C  0.56634258  0.02907786  0.93678345     0.28900
C1440       C  0.53391062  0.06436356  0.96678634     0.28900
C1441       C  0.54370842  0.43535714  0.97113467     0.37500
C1442       C  0.56681219  0.47071620  0.93658495     0.37500
C1443       C  0.45475151  0.02765210  0.54509475     0.37500
C1444       C  0.47789452  0.06292364  0.51021665     0.37500
C1445       C  0.49719989  0.42544906  0.56268265    -0.20400
C1446       C  0.47736454  0.44804701  0.58146139    -0.20000
C1447       C  0.57754384  0.05729158  0.92326363    -0.20000
C1448       C  0.55729703  0.07957208  0.94235893    -0.20000
C1449       C  0.56001299  0.42037958  0.94098578    -0.21100
C1450       C  0.57485044  0.44277038  0.91929765    -0.21100
C1451       C  0.43289626  0.05395787  0.55115393    -0.21100
C1452       C  0.44749768  0.07630909  0.52890138    -0.21100
C1453       C  0.52421600  0.42040512  0.49982565    -0.16400
C1454       C  0.45317570  0.50024230  0.56626750    -0.16400
C1455       C  0.50229807  0.07845546  0.48591003    -0.16400
C1456       C  0.57363663  0.49966116  0.92081693    -0.16400
H1457       H  0.50506723  0.40312625  0.57333524     0.16500
H1458       H  0.46692552  0.44631271  0.60933590     0.16500
H1459       H  0.59719045  0.06126359  0.90091968     0.16500
H1460       H  0.55833670  0.10407120  0.93744090     0.16500
H1461       H  0.56052141  0.39597350  0.93464838     0.14800
H1462       H  0.58952292  0.43896158  0.89338471     0.14800
H1463       H  0.40934309  0.05684804  0.57009609     0.14800
H1464       H  0.43727702  0.09981947  0.52712999     0.14800
H1465       H  0.48894105  0.47856189  0.50149351     0.28000
H1466       H  0.52483142  0.01639112  0.97563485     0.28000
N1467       N  0.50667914  0.46732528  0.77591819    -0.34700
N1468       N  0.44881147  0.46811077  0.72025128    -0.55300
N1469       N  0.44657530  0.03583616  0.72407299    -0.34700
N1470       N  0.50465634  0.03501924  0.77998231    -0.55300
C1471       C  0.49382321  0.43799278  0.77777715     0.28900
C1472       C  0.52562995  0.47302980  0.80765574     0.28900
C1473       C  0.43196119  0.03139111  0.68997686     0.28900
C1474       C  0.45132462  0.06652857  0.72865795     0.28900
C1475       C  0.45306310  0.43726317  0.72222934     0.37500
C1476       C  0.42990702  0.47359460  0.68873004     0.37500
C1477       C  0.53343081  0.03020118  0.80379389     0.37500
C1478       C  0.49792118  0.06571657  0.78020478     0.37500
C1479       C  0.50434823  0.42530651  0.81108745    -0.20000
C1480       C  0.52458915  0.44722668  0.82967662    -0.20000
C1481       C  0.42554078  0.05966606  0.67360613    -0.20000
C1482       C  0.43704332  0.08185642  0.69831057    -0.20000
C1483       C  0.43520683  0.42298654  0.69267241    -0.21100
C1484       C  0.42058694  0.44604489  0.67142833    -0.21100
C1485       C  0.54553885  0.05803627  0.81857776    -0.21100
C1486       C  0.52269197  0.08044161  0.80409419    -0.21100
C1487       C  0.47352584  0.42196732  0.74997641    -0.16400
C1488       C  0.54357198  0.50083219  0.81781718    -0.16400
C1489       C  0.47147560  0.08107503  0.75754085    -0.16400
C1490       C  0.42580236  0.50268375  0.67251351    -0.16400
H1491       H  0.49751366  0.40277740  0.82142674     0.16500
H1492       H  0.53582078  0.44475140  0.85702234     0.16500
H1493       H  0.41431934  0.06386034  0.64633933     0.16500
H1494       H  0.43720496  0.10636793  0.69334513     0.16500
H1495       H  0.43407052  0.39864896  0.68610809     0.14800
H1496       H  0.40603758  0.44297316  0.64539587     0.14800
H1497       H  0.56749998  0.06174826  0.83888112     0.14800
H1498       H  0.52448388  0.10483538  0.81021828     0.14800
H1499       H  0.50573203  0.48171949  0.75319651     0.28000
H1500       H  0.45273758  0.01906474  0.74330232     0.28000
N1501       N  0.72530989  0.46973059  0.97720188    -0.34700
N1502       N  0.73364117  0.03636171  0.97168067    -0.55300
N1503       N  0.79330367  0.03581528  0.52417863    -0.34700
N1504       N  0.78228997  0.46909544  0.53001118    -0.55300
C1505       C  0.69764011  0.47596257  0.95269792     0.28900
C1506       C  0.72046522  0.44052377  0.98877925     0.28900
C1507       C  0.78495356  0.06628160  0.52341167     0.28900
C1508       C  0.80927560  0.03033861  0.55733370     0.28900
C1509       C  0.71469882  0.03041100  0.94003995     0.37500
C1510       C  0.74711903  0.06528150  0.96877937     0.37500
C1511       C  0.77727417  0.43841635  0.52628291     0.37500
C1512       C  0.81164780  0.47311652  0.55326876     0.37500
C1513       C  0.67482761  0.45041100  0.94838312    -0.20000
C1514       C  0.68886129  0.42815549  0.97154597    -0.20000
C1515       C  0.79692871  0.08040826  0.55579878    -0.20000
C1516       C  0.81230523  0.05777814  0.57714908    -0.20000
C1517       C  0.71557127  0.05589293  0.91737060    -0.21100
C1518       C  0.73612373  0.07793459  0.93557734    -0.21100
C1519       C  0.80393040  0.42277838  0.54720208    -0.21100
C1520       C  0.82583844  0.44479568  0.56412636    -0.21100
C1521       C  0.69566979  0.50257607  0.93090491    -0.16400
C1522       C  0.74693611  0.42464757  0.50682978    -0.16400
C1523       C  0.82057963  0.50148754  0.57014896    -0.16400
C1524       C  0.76760315  0.08192620  0.49402069    -0.16400
H1525       H  0.65143912  0.44776356  0.92948468     0.16500
H1526       H  0.67812716  0.40501432  0.97395909     0.16500
H1527       H  0.79432635  0.10446533  0.56363569     0.16500
H1528       H  0.82411089  0.06121552  0.60435564     0.16500
H1529       H  0.70297800  0.05832945  0.89036120     0.14800
H1530       H  0.74285411  0.10045654  0.92515113     0.14800
H1531       H  0.80673903  0.39817434  0.55077068     0.14800
H1532       H  0.84878080  0.44056375  0.58323461     0.14800
H1533       H  0.74904615  0.48316016  0.98120207     0.28000
H1534       H  0.79055779  0.02010856  0.50251038     0.28000
N1535       N  0.77092573  0.03055246  0.71706848    -0.34700
N1536       N  0.71721796  0.02850451  0.77616994    -0.55300
N1537       N  0.72846182  0.46167328  0.77948055    -0.34700
N1538       N  0.78499791  0.46437434  0.72137659    -0.55300
C1539       C  0.76629716  0.06112070  0.72363656     0.28900
C1540       C  0.80145757  0.02687367  0.69486096     0.28900
C1541       C  0.71326616  0.46784382  0.81306692     0.28900
C1542       C  0.74477985  0.43338107  0.78106361     0.28900
C1543       C  0.71174814  0.05830206  0.76709708     0.37500
C1544       C  0.69190551  0.02215371  0.80284038     0.37500
C1545       C  0.80232405  0.46998649  0.68902239     0.37500
C1546       C  0.77925562  0.43369992  0.72182041     0.37500
C1547       C  0.79438648  0.07700863  0.70521151    -0.20000
C1548       C  0.81657481  0.05537264  0.68713992    -0.20000
C1549       C  0.71965242  0.44292810  0.83600599    -0.20000
C1550       C  0.73949058  0.42119992  0.81575745    -0.20000
C1551       C  0.68236865  0.07093973  0.78795528    -0.21100
C1552       C  0.66997666  0.04807407  0.81082421    -0.21100
C1553       C  0.80831465  0.44276094  0.66937575    -0.21100
C1554       C  0.79353936  0.41976093  0.69008411    -0.21100
C1555       C  0.73591252  0.07501763  0.74366064    -0.16400
C1556       C  0.81259471  0.99898763  0.67753158    -0.16400
C1557       C  0.76311669  0.41794465  0.75141182    -0.16400
C1558       C  0.69260474  0.99504135  0.82378912    -0.16400
H1559       H  0.79815556  0.10165351  0.70405006     0.16500
H1560       H  0.84052070  0.06009438  0.66952925     0.16500
H1561       H  0.71091828  0.44054413  0.86443554     0.16500
H1562       H  0.74925705  0.39909103  0.82560631     0.16500
H1563       H  0.67215233  0.09451755  0.78796772     0.14800
H1564       H  0.64829849  0.05050871  0.83185094     0.14800
H1565       H  0.82182337  0.43970719  0.64285884     0.14800
H1566       H  0.79328166  0.39559080  0.68247450     0.14800
H1567       H  0.75141787  0.01353755  0.72278897     0.28000
H1568       H  0.72503820  0.47471139  0.75583681     0.28000
C1569       C  0.68043151  0.49935289  0.89416023    -0.11400
C1570       C  0.67963330  0.99730872  0.86150613    -0.12900
C1571       C  0.83269317  0.50064872  0.60799391    -0.11400
C1572       C  0.82963078  0.00058362  0.64156707    -0.12900
C1573       C  0.56782680  0.50032772  0.84988759    -0.11400
C1574       C  0.57822235  0.50017670  0.88139987    -0.12900
C1575       C  0.43305374  0.50183176  0.60084928    -0.11400
C1576       C  0.42425021  0.50285937  0.63282292    -0.12900
C1577       C  0.73010195  0.10894729  0.74098649    -0.14500
C1578       C  0.75373630  0.12857654  0.75796801    -0.29700
H1579       H  0.70609613  0.11753553  0.72533751     0.14500
H1580       H  0.77657431  0.11924893  0.77469187     0.15100
C1581       C  0.73801796  0.36562801  0.75900804    -0.14500
C1582       C  0.76719966  0.38389222  0.75131674    -0.29700
H1583       H  0.71118608  0.37556369  0.76820358     0.14500
H1584       H  0.79385705  0.37366419  0.74204952     0.15100
C1585       C  0.73963684  0.13425844  0.48930744    -0.14500
C1586       C  0.76997842  0.11607171  0.49463049    -0.29700
H1587       H  0.71386911  0.12381439  0.98371883     0.14500
H1588       H  0.79665181  0.12639496  0.50289495     0.15100
C1589       C  0.76246631  0.37000080  0.49530006    -0.14500
C1590       C  0.74002059  0.39116457  0.51178785    -0.29700
H1591       H  0.78373506  0.37840862  0.97822465     0.14500
H1592       H  0.71549695  0.38417841  0.52762269     0.15100
C1593       C  0.99931732  0.13193858  0.74294054    -0.14500
C1594       C  0.97462786  0.11388129  0.76013297    -0.29700
H1595       H  0.51671559  0.12153787  0.72727955     0.14500
H1596       H  0.95206003  0.12367947  0.77710619     0.15100
C1597       C  0.00282100  0.36878365  0.75348249    -0.14500
C1598       C  0.97259446  0.38685538  0.74638958    -0.29700
H1599       H  0.52939448  0.38018808  0.76451818     0.14500
H1600       H  0.94584932  0.37610142  0.73935825     0.15100
C1601       C  0.51168833  0.13189549  0.50730766    -0.14500
C1602       C  0.49739194  0.11233777  0.48205509    -0.29700
H1603       H  0.52763106  0.12259356  0.53032444     0.14500
H1604       H  0.97120582  0.11906554  0.96621546     0.15100
C1605       C  0.52473588  0.38611676  0.50020848    -0.14500
C1606       C  0.49342857  0.36967743  0.50663509    -0.29700
H1607       H  0.55088657  0.37410132  0.49285374     0.14500
H1608       H  0.96964895  0.37900051  0.01557959     0.15100
Zn1609     Zn  0.53479992  0.72861588  0.03729173     1.49700
Zn1610     Zn  0.96959361  0.72053604  0.47176809     1.49400
Zn1611     Zn  0.96708912  0.77343769  0.03532954     1.49100
Zn1612     Zn  0.52871718  0.77723639  0.47156900     1.49500
O1613       O  0.50079614  0.75095753  0.00402694    -1.82200
O1614       O  0.53164854  0.68303919  0.02702623    -0.72900
O1615       O  0.91300351  0.72708340  0.48153313    -0.72700
O1616       O  0.97592420  0.76665666  0.09041966    -0.72200
O1617       O  0.98333660  0.67589893  0.48268712    -0.72900
O1618       O  0.52227818  0.73556219  0.09113502    -0.72500
O1619       O  0.91296696  0.76318437  0.02446276    -0.73100
O1620       O  0.51697758  0.82193361  0.48269892    -0.72500
O1621       O  0.97975538  0.72801361  0.41661116    -0.73200
O1622       O  0.97396867  0.81868547  0.02593744    -0.72600
O1623       O  0.51951171  0.76823650  0.41652674    -0.73100
O1624       O  0.58444739  0.77172031  0.48172867    -0.73000
O1625       O  0.58905857  0.74133103  0.03024933    -0.72800
C1626       C  0.51200141  0.66629318  0.00540433     0.79000
C1627       C  0.89670784  0.74414041  0.00292294     0.79500
C1628       C  0.49865850  0.75289339  0.10821169     0.78500
C1629       C  0.49736876  0.83580031  0.00509794     0.78800
C1630       C  0.49876251  0.74900595  0.39912808     0.80000
C1631       C  0.60538273  0.75691284  0.00552490     0.79000
Zn1632     Zn  0.53161085  0.77432283  0.28576765     1.49700
Zn1633     Zn  0.96973912  0.72053968  0.28478477     1.49400
Zn1634     Zn  0.96885547  0.77374507  0.22239123     1.49100
Zn1635     Zn  0.52984734  0.72440471  0.21904668     1.49500
O1636       O  0.00083614  0.74673142  0.25298500    -1.82200
O1637       O  0.52141382  0.76647694  0.34079740    -0.72900
O1638       O  0.91398030  0.72905196  0.27473681    -0.72700
O1639       O  0.98007372  0.81837556  0.23444133    -0.72200
O1640       O  0.97939256  0.72802787  0.34041526    -0.72900
O1641       O  0.52285312  0.81979461  0.27683023    -0.72500
O1642       O  0.91371915  0.76604817  0.23273945    -0.73100
O1643       O  0.51964458  0.73356436  0.16548979    -0.72500
O1644       O  0.98061381  0.67562351  0.27209433    -0.73200
O1645       O  0.97681446  0.76679098  0.16673196    -0.72600
O1646       O  0.51938272  0.67971412  0.22629138    -0.73100
O1647       O  0.58546986  0.73040261  0.22751011    -0.73000
O1648       O  0.58654171  0.76417987  0.27421914    -0.72800
C1649       C  0.00113773  0.74633442  0.35813026     0.79000
C1650       C  0.89628707  0.74759811  0.25366437     0.79500
C1651       C  0.00462855  0.83126160  0.25513495     0.78500
C1652       C  0.99861654  0.74860665  0.14845743     0.78800
C1653       C  0.00213507  0.66232610  0.24830583     0.80000
C1654       C  0.60354120  0.74684462  0.25064059     0.79000
Zn1655     Zn  0.78309580  0.77355486  0.46876042     1.49700
Zn1656     Zn  0.72256174  0.77959244  0.03500625     1.49400
Zn1657     Zn  0.71374617  0.72986410  0.46867600     1.49100
Zn1658     Zn  0.78024881  0.72236478  0.03238984     1.49500
O1659       O  0.75106412  0.75127797  0.00170946    -1.82200
O1660       O  0.77692830  0.81916125  0.47712202    -0.72900
O1661       O  0.66546903  0.77323314  0.02769634    -0.72700
O1662       O  0.72161162  0.73776288  0.41427444    -0.72200
O1663       O  0.73559045  0.82415419  0.02257535    -0.72900
O1664       O  0.77498349  0.76420076  0.41410946    -0.72500
O1665       O  0.66041419  0.74016819  0.48078627    -0.73100
O1666       O  0.76776023  0.67861100  0.01723801    -0.72500
O1667       O  0.73456947  0.77155376  0.08993389    -0.73200
O1668       O  0.71939710  0.68451877  0.47482458    -0.72600
O1669       O  0.76928405  0.72852191  0.08800680    -0.73100
O1670       O  0.83672463  0.72793276  0.02397735    -0.73000
O1671       O  0.83705770  0.76248316  0.47970496    -0.72800
C1672       C  0.75839782  0.83580515  0.99927024     0.79000
C1673       C  0.64672400  0.75711336  0.00448417     0.79500
C1674       C  0.74844749  0.75051189  0.39698822     0.78500
C1675       C  0.74364858  0.66695509  0.99503838     0.78800
C1676       C  0.75196707  0.74970867  0.10632872     0.80000
C1677       C  0.85537965  0.74452941  0.00179161     0.79000
Zn1678     Zn  0.78112709  0.77432793  0.22161443     1.49700
Zn1679     Zn  0.71979541  0.72040451  0.21854089     1.49400
Zn1680     Zn  0.78188519  0.72272038  0.28506553     1.49100
Zn1681     Zn  0.71607309  0.77148596  0.28431112     1.49500
O1682       O  0.74979432  0.74709301  0.25190022    -1.82200
O1683       O  0.77117775  0.76826141  0.16583094    -0.72900
O1684       O  0.73082796  0.67504958  0.22992086    -0.72700
O1685       O  0.83711804  0.72983433  0.27488191    -0.72200
O1686       O  0.73181832  0.72857832  0.16364619    -0.72900
O1687       O  0.83693628  0.76585412  0.23175693    -0.72500
O1688       O  0.77171152  0.67769410  0.27666322    -0.73100
O1689       O  0.72397082  0.76464633  0.33884389    -0.72500
O1690       O  0.66311724  0.72880182  0.22731168    -0.73200
O1691       O  0.77340611  0.73276827  0.33962271    -0.72600
O1692       O  0.66221090  0.76292140  0.27365239    -0.73100
O1693       O  0.72277415  0.81621052  0.27602126    -0.73000
O1694       O  0.76991919  0.81901294  0.23540172    -0.72800
C1695       C  0.75171261  0.74877453  0.14738538     0.79000
C1696       C  0.75171042  0.66209983  0.25412057     0.79500
C1697       C  0.85460830  0.74776885  0.25339757     0.78500
C1698       C  0.74870729  0.74929732  0.35642438     0.78800
C1699       C  0.64512422  0.74602244  0.25037135     0.80000
C1700       C  0.74544891  0.83178631  0.25675030     0.79000
N1701       N  0.49208281  0.96581354  0.02423647    -0.34700
N1702       N  0.54789906  0.96583112  0.46805659    -0.55300
N1703       N  0.53580997  0.53245454  0.46107709    -0.34700
N1704       N  0.48421927  0.53349000  0.02271803    -0.55300
C1705       C  0.50726506  0.93715437  0.02695782     0.28900
C1706       C  0.47471810  0.97237034  0.05674640     0.28900
C1707       C  0.56410190  0.52757553  0.43654569     0.28900
C1708       C  0.53151706  0.56333288  0.46550224     0.28900
C1709       C  0.54317297  0.93506965  0.47063251     0.37500
C1710       C  0.56653454  0.97020323  0.43603585     0.37500
C1711       C  0.45733597  0.52804196  0.04815818     0.37500
C1712       C  0.48092323  0.56349322  0.01380883     0.37500
C1713       C  0.49948173  0.92540438  0.06142731    -0.20400
C1714       C  0.47890332  0.94753231  0.08018128    -0.20000
C1715       C  0.57810619  0.55556634  0.42510811    -0.20000
C1716       C  0.55781603  0.57817272  0.44370321    -0.20000
C1717       C  0.56057126  0.91988221  0.44121431    -0.21100
C1718       C  0.57557156  0.94214273  0.41948123    -0.21100
C1719       C  0.43693343  0.55483993  0.05585201    -0.21100
C1720       C  0.45185006  0.57730771  0.03400246    -0.21100
C1721       C  0.52646137  0.92075097  0.99850270    -0.16400
C1722       C  0.45415702  0.99961926  0.06566026    -0.16400
C1723       C  0.50489799  0.57890460  0.98899583    -0.16400
C1724       C  0.57324614  0.99898212  0.41992330    -0.16400
H1725       H  0.50796185  0.90322931  0.07209475     0.16500
H1726       H  0.46840604  0.94551399  0.10804625     0.16500
H1727       H  0.60002248  0.55921289  0.40475908     0.16500
H1728       H  0.56118967  0.60273174  0.44054111     0.16500
H1729       H  0.56166952  0.89540826  0.43534201     0.14800
H1730       H  0.59077719  0.93816507  0.39389011     0.14800
H1731       H  0.41417250  0.55798649  0.07562883     0.14800
H1732       H  0.44272955  0.60116425  0.03350286     0.14800
H1733       H  0.49014673  0.97866739  0.00026720     0.28000
H1734       H  0.51731410  0.51583936  0.46958312     0.28000
N1735       N  0.50570483  0.96548462  0.27636390    -0.34700
N1736       N  0.44738600  0.96688726  0.22105073    -0.55300
N1737       N  0.44705508  0.53489722  0.22537025    -0.34700
N1738       N  0.50591689  0.53291203  0.28004311    -0.55300
C1739       C  0.49144307  0.93665460  0.27912195     0.28900
C1740       C  0.52569765  0.97100696  0.30755546     0.28900
C1741       C  0.43236827  0.53055437  0.19130419     0.28900
C1742       C  0.45318880  0.56546876  0.22950033     0.28900
C1743       C  0.45032832  0.93599583  0.22376122     0.37500
C1744       C  0.42957339  0.97244562  0.18895421     0.37500
C1745       C  0.53493579  0.52737456  0.30329647     0.37500
C1746       C  0.50071308  0.56377900  0.27997654     0.37500
C1747       C  0.50201586  0.92415394  0.31252913    -0.20000
C1748       C  0.52391665  0.94557503  0.33014706    -0.20000
C1749       C  0.42740933  0.55883752  0.17448873    -0.20000
C1750       C  0.43971136  0.58091026  0.19892960    -0.20000
C1751       C  0.43240223  0.92179268  0.19417795    -0.21100
C1752       C  0.41945852  0.94492848  0.17200916    -0.21100
C1753       C  0.54889490  0.55493686  0.31724542    -0.21100
C1754       C  0.52682613  0.57792320  0.30294698    -0.21100
C1755       C  0.47049775  0.92065617  0.25172782    -0.16400
C1756       C  0.54498005  0.99844062  0.31685717    -0.16400
C1757       C  0.47421540  0.57967275  0.25798326    -0.16400
C1758       C  0.42720845  0.00141549  0.17210842    -0.16400
H1759       H  0.49441702  0.90196849  0.32340027     0.16500
H1760       H  0.53590225  0.94302110  0.35720104     0.16500
H1761       H  0.41665384  0.56310406  0.14707360     0.16500
H1762       H  0.44112650  0.60532160  0.19356569     0.16500
H1763       H  0.43042434  0.89742469  0.18805418     0.14800
H1764       H  0.40557720  0.94187509  0.14562699     0.14800
H1765       H  0.57141347  0.55812523  0.33712446     0.14800
H1766       H  0.52992900  0.60228265  0.30865881     0.14800
H1767       H  0.50505754  0.97950958  0.25330508     0.28000
H1768       H  0.45247788  0.51813431  0.24482138     0.28000
N1769       N  0.72811934  0.97059932  0.47186586    -0.34700
N1770       N  0.73412143  0.53738883  0.46708510    -0.55300
N1771       N  0.79505753  0.53431481  0.02462907    -0.34700
N1772       N  0.78409134  0.96773867  0.03289082    -0.55300
C1773       C  0.70072014  0.97709998  0.44713664     0.28900
C1774       C  0.72256331  0.94148681  0.48356795     0.28900
C1775       C  0.78745369  0.56491747  0.02396591     0.28900
C1776       C  0.81382385  0.52886667  0.05639770     0.28900
C1777       C  0.71604877  0.53166932  0.43494283     0.37500
C1778       C  0.74693475  0.56655751  0.46515154     0.37500
C1779       C  0.77827657  0.93712045  0.02969613     0.37500
C1780       C  0.81498438  0.97144528  0.05425219     0.37500
C1781       C  0.67761900  0.95175277  0.44255755    -0.20000
C1782       C  0.69107774  0.92937811  0.46588525    -0.20000
C1783       C  0.80277646  0.57912545  0.05492914    -0.20000
C1784       C  0.81947390  0.55644575  0.07529262    -0.20000
C1785       C  0.71682523  0.55751747  0.41285227    -0.21100
C1786       C  0.73643778  0.57959323  0.43200514    -0.21100
C1787       C  0.80579872  0.92120824  0.04923040    -0.21100
C1788       C  0.82916364  0.94298206  0.06461466    -0.21100
C1789       C  0.69883909  0.00398244  0.42578612    -0.16400
C1790       C  0.74709892  0.92355922  0.01134513    -0.16400
C1791       C  0.82600285  0.99981505  0.06987658    -0.16400
C1792       C  0.76799740  0.58062371  0.99578726    -0.16400
H1793       H  0.65416584  0.94942899  0.42364381     0.16500
H1794       H  0.67980187  0.90642437  0.46843113     0.16500
H1795       H  0.80163939  0.60329525  0.06251453     0.16500
H1796       H  0.83388756  0.55994461  0.10127820     0.16500
H1797       H  0.70460793  0.56022481  0.38571411     0.14800
H1798       H  0.74262342  0.60247519  0.42237971     0.14800
H1799       H  0.80843842  0.89657642  0.05267323     0.14800
H1800       H  0.85329434  0.93851110  0.08220943     0.14800
H1801       H  0.75196063  0.98386197  0.47623789     0.28000
H1802       H  0.78997228  0.51843119  0.00358704     0.28000
N1803       N  0.77739782  0.53025134  0.21242657    -0.34700
N1804       N  0.72278957  0.52906850  0.27057953    -0.55300
N1805       N  0.73123703  0.96225799  0.27585192    -0.34700
N1806       N  0.78880215  0.96406168  0.21910127    -0.55300
C1807       C  0.77258351  0.56087455  0.21833188     0.28900
C1808       C  0.80899898  0.52630774  0.19176510     0.28900
C1809       C  0.71607884  0.96922435  0.30922870     0.28900
C1810       C  0.74747987  0.93398223  0.27838273     0.28900
C1811       C  0.71702577  0.55854953  0.26036593     0.37500
C1812       C  0.69667368  0.52299216  0.29659308     0.37500
C1813       C  0.80737029  0.96928746  0.18730970     0.37500
C1814       C  0.78264472  0.93343363  0.21968313     0.37500
C1815       C  0.80162746  0.57658660  0.20118775    -0.20000
C1816       C  0.82460184  0.55472941  0.18439506    -0.20000
C1817       C  0.72243987  0.94485207  0.33300230    -0.20000
C1818       C  0.74220603  0.92263589  0.31348184    -0.20000
C1819       C  0.68668949  0.57125742  0.27979157    -0.21100
C1820       C  0.67398936  0.54876782  0.30303360    -0.21100
C1821       C  0.81358082  0.94187341  0.16811692    -0.21100
C1822       C  0.79765971  0.91916468  0.18848817    -0.21100
C1823       C  0.74150909  0.57493751  0.23697680    -0.16400
C1824       C  0.82064887  0.49823796  0.17520138    -0.16400
C1825       C  0.76612209  0.91800195  0.24932680    -0.16400
C1826       C  0.69706906  0.49629568  0.31824197    -0.16400
H1827       H  0.80552115  0.60124365  0.20025190     0.16500
H1828       H  0.84940104  0.55923049  0.16783509     0.16500
H1829       H  0.71377684  0.94314155  0.36152917     0.16500
H1830       H  0.75204671  0.90081630  0.32412190     0.16500
H1831       H  0.67591712  0.59463771  0.27852151     0.14800
H1832       H  0.65148272  0.55133710  0.32319509     0.14800
H1833       H  0.82819881  0.93847682  0.14223217     0.14800
H1834       H  0.79742514  0.89493853  0.18115604     0.14800
H1835       H  0.75750946  0.51335582  0.21747451     0.28000
H1836       H  0.72793480  0.97481881  0.25181100     0.28000
C1837       C  0.68317575  0.00140098  0.38917899    -0.11400
C1838       C  0.68283318  0.49897629  0.35546443    -0.12900
C1839       C  0.83996514  0.99909605  0.10710695    -0.11400
C1840       C  0.83821417  0.49949115  0.13945353    -0.12900
C1841       C  0.56917727  0.99803566  0.34896877    -0.11400
C1842       C  0.57899760  0.99890825  0.38064891    -0.12900
C1843       C  0.43422374  0.00060840  0.10036229    -0.11400
C1844       C  0.42570469  0.00128254  0.13241107    -0.12900
C1845       C  0.73601956  0.60879331  0.23365829    -0.14500
C1846       C  0.75380088  0.62817902  0.25680182    -0.29700
H1847       H  0.71835416  0.61748909  0.21154691     0.14500
H1848       H  0.77160848  0.61859663  0.27833687     0.15100
C1849       C  0.74215097  0.86547499  0.25923165    -0.14500
C1850       C  0.77074828  0.88393922  0.25023332    -0.29700
H1851       H  0.71536236  0.87531787  0.26867570     0.14500
H1852       H  0.79730147  0.87376810  0.24061682     0.15100
C1853       C  0.74067654  0.63335040  0.99133398    -0.14500
C1854       C  0.77087290  0.61480851  0.99589088    -0.29700
H1855       H  0.71196240  0.62461730  0.48133279     0.14500
H1856       H  0.79802752  0.62495992  0.00283536     0.15100
C1857       C  0.76264715  0.86951272  0.99669347    -0.14500
C1858       C  0.74103577  0.88993086  0.01544572    -0.29700
H1859       H  0.78521863  0.87783586  0.47778255     0.14500
H1860       H  0.71802898  0.88226091  0.03287423     0.15100
C1861       C  0.00365287  0.62860299  0.24518947    -0.14500
C1862       C  0.97990657  0.61040772  0.26340178    -0.29700
H1863       H  0.51937025  0.62019551  0.22712466     0.14500
H1864       H  0.95825116  0.62002348  0.28160259     0.15100
C1865       C  0.00794999  0.86497764  0.25574635    -0.14500
C1866       C  0.97811583  0.88368969  0.24981793    -0.29700
H1867       H  0.52675961  0.87951040  0.26650637     0.14500
H1868       H  0.95079958  0.87358761  0.24347112     0.15100
C1869       C  0.51774297  0.63257777  0.00698499    -0.14500
C1870       C  0.49948330  0.61265426  0.98490592    -0.29700
H1871       H  0.53741802  0.62368533  0.02739050     0.14500
H1872       H  0.97987729  0.61967668  0.45773470     0.15100
C1873       C  0.52736383  0.88638910  0.99872805    -0.14500
C1874       C  0.49664624  0.86965983  0.00671804    -0.29700
H1875       H  0.55328115  0.87455588  0.99025558     0.14500
H1876       H  0.96560393  0.87809707  0.51579184     0.15100
Zn1877     Zn  0.53223511  0.72787377  0.53721300     1.49700
Zn1878     Zn  0.97154285  0.72059026  0.97072949     1.49400
Zn1879     Zn  0.96509163  0.77315236  0.53601457     1.49100
Zn1880     Zn  0.53086631  0.77703554  0.97137637     1.49500
O1881       O  0.49873894  0.75082365  0.50399502    -1.82200
O1882       O  0.52699769  0.68219054  0.52763755    -0.72900
O1883       O  0.91522107  0.72601135  0.98141351    -0.72700
O1884       O  0.97442009  0.76734021  0.59065432    -0.72200
O1885       O  0.98752371  0.67609687  0.97982382    -0.72900
O1886       O  0.52055452  0.73562627  0.59132226    -0.72500
O1887       O  0.91079808  0.76275962  0.52628272    -0.73100
O1888       O  0.52040458  0.82184602  0.98336592    -0.72500
O1889       O  0.97944237  0.72931714  0.91559333    -0.73200
O1890       O  0.97163362  0.81822154  0.52667192    -0.72600
O1891       O  0.51956909  0.76879236  0.91659521    -0.73100
O1892       O  0.58691494  0.77038400  0.98016158    -0.73000
O1893       O  0.58682487  0.73972757  0.52919367    -0.72800
C1894       C  0.50730572  0.66573220  0.50570120     0.79000
C1895       C  0.89446108  0.74442919  0.50395582     0.79500
C1896       C  0.49744298  0.75340920  0.60844986     0.78500
C1897       C  0.49385102  0.83577492  0.50443061     0.78800
C1898       C  0.49852076  0.74959803  0.89947662     0.80000
C1899       C  0.60299724  0.75688490  0.50587382     0.79000
Zn1900     Zn  0.53012783  0.77504357  0.78614494     1.49700
Zn1901     Zn  0.96695484  0.72373112  0.78385566     1.49400
Zn1902     Zn  0.96614742  0.77667696  0.72146520     1.49100
Zn1903     Zn  0.52786826  0.72522829  0.71958704     1.49500
O1904       O  0.99812093  0.75015861  0.75264878    -1.82200
O1905       O  0.51959629  0.76779755  0.84105782    -0.72900
O1906       O  0.91138568  0.73256403  0.77368534    -0.72700
O1907       O  0.97654267  0.82147798  0.73289470    -0.72200
O1908       O  0.97742225  0.73043944  0.83943820    -0.72900
O1909       O  0.52370669  0.82051012  0.77605181    -0.72500
O1910       O  0.91079780  0.76881567  0.73078490    -0.73100
O1911       O  0.51864185  0.73451119  0.66590989    -0.72500
O1912       O  0.97699652  0.67880183  0.77041237    -0.73200
O1913       O  0.97528772  0.76909286  0.66639665    -0.72600
O1914       O  0.51655350  0.68078885  0.72655739    -0.73100
O1915       O  0.58338256  0.73018659  0.72875720    -0.73000
O1916       O  0.58464575  0.76360248  0.77577877    -0.72800
C1917       C  0.99895402  0.74892156  0.85716585     0.79000
C1918       C  0.89353412  0.75055388  0.75206045     0.79500
C1919       C  0.00053969  0.83493442  0.75366949     0.78500
C1920       C  0.99811066  0.75132245  0.64877899     0.78800
C1921       C  0.99881120  0.66558472  0.74683488     0.80000
C1922       C  0.60150181  0.74612531  0.75231706     0.79000
Zn1923     Zn  0.78505425  0.77354373  0.96871530     1.49700
Zn1924     Zn  0.72013619  0.78062804  0.53469832     1.49400
Zn1925     Zn  0.71619372  0.72902750  0.96901290     1.49100
Zn1926     Zn  0.77726094  0.72292967  0.53260041     1.49500
O1927       O  0.74853173  0.75192524  0.50169343    -1.82200
O1928       O  0.77853871  0.81905360  0.97766930    -0.72900
O1929       O  0.66298706  0.77424936  0.52719651    -0.72700
O1930       O  0.72399304  0.73687410  0.91474795    -0.72200
O1931       O  0.73393396  0.82528426  0.52187522    -0.72900
O1932       O  0.77611891  0.76489864  0.91393822    -0.72500
O1933       O  0.66281372  0.74009483  0.98035786    -0.73100
O1934       O  0.76543791  0.67936864  0.51630813    -0.72500
O1935       O  0.73143640  0.77210959  0.58987158    -0.73200
O1936       O  0.72154168  0.68355249  0.97588658    -0.72600
O1937       O  0.76450231  0.72821757  0.58800181    -0.73100
O1938       O  0.83413819  0.72886560  0.52545069    -0.73000
O1939       O  0.83921095  0.76260865  0.97931255    -0.72800
C1940       C  0.75705058  0.83641229  0.49840529     0.79000
C1941       C  0.64430216  0.75741551  0.50465956     0.79500
C1942       C  0.74981620  0.75060643  0.89715379     0.78500
C1943       C  0.74159083  0.66785238  0.49373430     0.78800
C1944       C  0.74759396  0.74963356  0.60630603     0.80000
C1945       C  0.85305095  0.74491143  0.50282946     0.79000
Zn1946     Zn  0.77711956  0.77493008  0.72109812     1.49700
Zn1947     Zn  0.71730197  0.71996021  0.71938271     1.49400
Zn1948     Zn  0.78067120  0.72353061  0.78453001     1.49100
Zn1949     Zn  0.71382476  0.77107681  0.78536381     1.49500
O1950       O  0.74724025  0.74723577  0.75207862    -1.82200
O1951       O  0.76601947  0.76868156  0.66568629    -0.72900
O1952       O  0.72863830  0.67485275  0.73188471    -0.72700
O1953       O  0.83510020  0.73185102  0.77332181    -0.72200
O1954       O  0.72855193  0.72778986  0.66391602    -0.72900
O1955       O  0.83354049  0.76781435  0.73016604    -0.72500
O1956       O  0.77164485  0.67826147  0.77671896    -0.73100
O1957       O  0.72336074  0.76453206  0.83973393    -0.72500
O1958       O  0.66085081  0.72812662  0.72876953    -0.73200
O1959       O  0.77367313  0.73358951  0.83914320    -0.72600
O1960       O  0.66009769  0.76170741  0.77571012    -0.73100
O1961       O  0.71900572  0.81589917  0.77687627    -0.73000
O1962       O  0.76489833  0.81925783  0.73499844    -0.72800
C1963       C  0.74728313  0.74863210  0.64742082     0.79000
C1964       C  0.75071098  0.66230213  0.75539680     0.79500
C1965       C  0.85188655  0.75009822  0.75173859     0.78500
C1966       C  0.74908031  0.74968474  0.85661512     0.78800
C1967       C  0.64298314  0.74500516  0.75225045     0.80000
C1968       C  0.74082315  0.83171891  0.75698805     0.79000
N1969       N  0.48967244  0.96595731  0.52453322    -0.34700
N1970       N  0.55096452  0.96643709  0.96801880    -0.55300
N1971       N  0.53800029  0.53310101  0.96336834    -0.34700
N1972       N  0.48305949  0.53319595  0.52110123    -0.55300
C1973       C  0.50405019  0.93703868  0.52735594     0.28900
C1974       C  0.47238966  0.97288107  0.55697919     0.28900
C1975       C  0.56529379  0.52824296  0.93785021     0.28900
C1976       C  0.53336622  0.56393164  0.96755462     0.28900
C1977       C  0.54595206  0.93566769  0.96995652     0.37500
C1978       C  0.56900825  0.97135911  0.93578893     0.37500
C1979       C  0.45567225  0.52752267  0.54595383     0.37500
C1980       C  0.47860217  0.56283987  0.51103653     0.37500
C1981       C  0.49569168  0.92541115  0.56174004    -0.20400
C1982       C  0.47582710  0.94801124  0.58045634    -0.20000
C1983       C  0.57863938  0.55627761  0.92577221    -0.20000
C1984       C  0.55870371  0.57883620  0.94474647    -0.20000
C1985       C  0.56261364  0.92091193  0.93985345    -0.21100
C1986       C  0.57736325  0.94350616  0.91838233    -0.21100
C1987       C  0.43372783  0.55377660  0.55205100    -0.21100
C1988       C  0.44821009  0.57616239  0.52978859    -0.21100
C1989       C  0.52332131  0.92046447  0.49913550    -0.16400
C1990       C  0.45216008  0.00038512  0.56544321    -0.16400
C1991       C  0.50276061  0.57837647  0.48651436    -0.16400
C1992       C  0.57515165  0.00042284  0.91993940    -0.16400
H1993       H  0.50341689  0.90306075  0.57240126     0.16500
H1994       H  0.46521747  0.94622884  0.60825411     0.16500
H1995       H  0.59962190  0.55998112  0.90452099     0.16500
H1996       H  0.56149504  0.60338804  0.94101164     0.16500
H1997       H  0.56330224  0.89654146  0.93332911     0.14800
H1998       H  0.59204518  0.93989360  0.89243743     0.14800
H1999       H  0.41018097  0.55660964  0.57101082     0.14800
H2000       H  0.43786823  0.59963724  0.52800198     0.14800
H2001       H  0.48817093  0.97870691  0.50071251     0.28000
H2002       H  0.52003373  0.51628795  0.97284607     0.28000
N2003       N  0.50802162  0.96750260  0.77508091    -0.34700
N2004       N  0.44996234  0.96825410  0.71956190    -0.55300
N2005       N  0.44602487  0.53575829  0.72458348    -0.34700
N2006       N  0.50395100  0.53486795  0.78060165    -0.55300
C2007       C  0.49531179  0.93812660  0.77697734     0.28900
C2008       C  0.52718940  0.97323668  0.80669273     0.28900
C2009       C  0.43140249  0.53130842  0.69049401     0.28900
C2010       C  0.45087333  0.56644932  0.72912482     0.28900
C2011       C  0.45402359  0.93739815  0.72171934     0.37500
C2012       C  0.43059116  0.97369630  0.68828429     0.37500
C2013       C  0.53244561  0.52993748  0.80468522     0.37500
C2014       C  0.49738948  0.56558285  0.78075519     0.37500
C2015       C  0.50621739  0.92543552  0.81018453    -0.20000
C2016       C  0.52653943  0.94738230  0.82864378    -0.20000
C2017       C  0.42504623  0.55957879  0.67409277    -0.20000
C2018       C  0.43661098  0.58177267  0.69876565    -0.20000
C2019       C  0.43564035  0.92309137  0.69248653    -0.21100
C2020       C  0.42085926  0.94612611  0.67128785    -0.21100
C2021       C  0.54456442  0.55772411  0.81961595    -0.21100
C2022       C  0.52202128  0.58022162  0.80486375    -0.21100
C2023       C  0.47467470  0.92210617  0.74937990    -0.16400
C2024       C  0.54487083  0.00114875  0.81686514    -0.16400
C2025       C  0.47110430  0.58099333  0.75796679    -0.16400
C2026       C  0.42624088  0.00276441  0.67204164    -0.16400
H2027       H  0.49953917  0.90290030  0.82059598     0.16500
H2028       H  0.53805359  0.94489207  0.85588961     0.16500
H2029       H  0.41386457  0.56376060  0.64680763     0.16500
H2030       H  0.43685070  0.60627712  0.69376034     0.16500
H2031       H  0.43418405  0.89873384  0.68612060     0.14800
H2032       H  0.40583660  0.94301693  0.64552038     0.14800
H2033       H  0.56624658  0.56133657  0.84025474     0.14800
H2034       H  0.52384342  0.60460594  0.81103583     0.14800
H2035       H  0.50675550  0.98196201  0.75243486     0.28000
H2036       H  0.45220607  0.51897489  0.74378760     0.28000
N2037       N  0.72616098  0.96955699  0.97745567    -0.34700
N2038       N  0.73302205  0.53642365  0.97130793    -0.55300
N2039       N  0.79256101  0.53581355  0.52382687    -0.34700
N2040       N  0.78254314  0.96907969  0.53033529    -0.55300
C2041       C  0.69868159  0.97568386  0.95271807     0.28900
C2042       C  0.72159955  0.94023557  0.98875436     0.28900
C2043       C  0.78397099  0.56623613  0.52312380     0.28900
C2044       C  0.80865404  0.53039600  0.55694724     0.28900
C2045       C  0.71386828  0.53055079  0.93976908     0.37500
C2046       C  0.74646610  0.56535054  0.96842737     0.37500
C2047       C  0.77743725  0.93840851  0.52657898     0.37500
C2048       C  0.81181362  0.97302117  0.55371531     0.37500
C2049       C  0.67630775  0.94992319  0.94795112    -0.20000
C2050       C  0.69037048  0.92767191  0.97108676    -0.20000
C2051       C  0.79582228  0.58038575  0.55553788    -0.20000
C2052       C  0.81143015  0.55782362  0.57682266    -0.20000
C2053       C  0.71452901  0.55609747  0.91720120    -0.21100
C2054       C  0.73517233  0.57811103  0.93537179    -0.21100
C2055       C  0.80393849  0.92269787  0.54759459    -0.21100
C2056       C  0.82583571  0.94466005  0.56463529    -0.21100
C2057       C  0.69649512  0.00243624  0.93115001    -0.16400
C2058       C  0.74706378  0.92472972  0.50710438    -0.16400
C2059       C  0.82079123  0.00136049  0.57065051    -0.16400
C2060       C  0.76664336  0.58186383  0.49371935    -0.16400
H2061       H  0.65326242  0.94711105  0.92871202     0.16500
H2062       H  0.67994668  0.90440883  0.97316790     0.16500
H2063       H  0.79302915  0.60442382  0.56340824     0.16500
H2064       H  0.82324709  0.56130463  0.60401299     0.16500
H2065       H  0.70168313  0.55860643  0.89031490     0.14800
H2066       H  0.74174390  0.60069330  0.92502989     0.14800
H2067       H  0.80661014  0.89808542  0.55117823     0.14800
H2068       H  0.84865618  0.94036983  0.58386332     0.14800
H2069       H  0.74959610  0.98324624  0.98191062     0.28000
H2070       H  0.79000460  0.52014788  0.50209464     0.28000
N2071       N  0.77122330  0.53065946  0.71647615    -0.34700
N2072       N  0.71764825  0.52846852  0.77582793    -0.55300
N2073       N  0.72754771  0.96156744  0.77972311    -0.34700
N2074       N  0.78412004  0.96415128  0.72173894    -0.55300
C2075       C  0.76637719  0.56120695  0.72300491     0.28900
C2076       C  0.80175218  0.52711420  0.69422868     0.28900
C2077       C  0.71252563  0.96784028  0.81335187     0.28900
C2078       C  0.74380058  0.93324665  0.78134355     0.28900
C2079       C  0.71201575  0.55823152  0.76670309     0.37500
C2080       C  0.69239311  0.52208115  0.80254215     0.37500
C2081       C  0.80149256  0.96975507  0.68941167     0.37500
C2082       C  0.77820918  0.93349852  0.72210581     0.37500
C2083       C  0.79429788  0.57722533  0.70450429    -0.20000
C2084       C  0.81662946  0.55568519  0.68642919    -0.20000
C2085       C  0.71892487  0.94295426  0.83634009    -0.20000
C2086       C  0.73862314  0.92115124  0.81609358    -0.20000
C2087       C  0.68261032  0.57081124  0.78757569    -0.21100
C2088       C  0.67034749  0.54794187  0.81049585    -0.21100
C2089       C  0.80730485  0.94254383  0.66968330    -0.21100
C2090       C  0.79240197  0.91956053  0.69033373    -0.21100
C2091       C  0.73601081  0.57498349  0.74315383    -0.16400
C2092       C  0.81315000  0.49924956  0.67700315    -0.16400
C2093       C  0.76210084  0.91775788  0.75171542    -0.16400
C2094       C  0.69313693  0.49495616  0.82346850    -0.16400
H2095       H  0.79788330  0.60189385  0.70336584     0.16500
H2096       H  0.84056626  0.56050588  0.66883822     0.16500
H2097       H  0.71033164  0.94064820  0.86481899     0.16500
H2098       H  0.74841731  0.89906958  0.82600093     0.16500
H2099       H  0.67226026  0.59435103  0.78752625     0.14800
H2100       H  0.64865055  0.55033286  0.83151067     0.14800
H2101       H  0.82080862  0.93948561  0.64316525     0.14800
H2102       H  0.79202111  0.89540204  0.68267736     0.14800
H2103       H  0.75187427  0.51355507  0.72232258     0.28000
H2104       H  0.72411901  0.97460304  0.75607451     0.28000
C2105       C  0.68079689  0.99943528  0.89456975    -0.11400
C2106       C  0.67977585  0.49711563  0.86108310    -0.12900
C2107       C  0.83248299  0.00045359  0.60860519    -0.11400
C2108       C  0.83008499  0.50084383  0.64098089    -0.12900
C2109       C  0.56913953  0.00079212  0.84894486    -0.11400
C2110       C  0.57955015  0.00079502  0.88046392    -0.12900
C2111       C  0.43235725  0.00206252  0.60022658    -0.11400
C2112       C  0.42406628  0.00295755  0.63235111    -0.12900
C2113       C  0.73018179  0.60889539  0.74062210    -0.14500
C2114       C  0.75339367  0.62842313  0.75830831    -0.29700
H2115       H  0.70668011  0.61754016  0.72431795     0.14500
H2116       H  0.77581921  0.61900869  0.77547869     0.15100
C2117       C  0.73740596  0.86533159  0.75979035    -0.14500
C2118       C  0.76636955  0.88371428  0.75174128    -0.29700
H2119       H  0.71057953  0.87516131  0.76915848     0.14500
H2120       H  0.79300536  0.87356959  0.74228710     0.15100
C2121       C  0.73907191  0.63432892  0.48920727    -0.14500
C2122       C  0.76930943  0.61598840  0.49424265    -0.29700
H2123       H  0.71323608  0.62375974  0.98442542     0.14500
H2124       H  0.79611563  0.62616721  0.50236152     0.15100
C2125       C  0.76220127  0.87004981  0.49519252    -0.14500
C2126       C  0.74003509  0.89124716  0.51200025    -0.29700
H2127       H  0.78453992  0.87801812  0.97843662     0.14500
H2128       H  0.71582763  0.88429616  0.52830837     0.15100
C2129       C  0.00001796  0.63189834  0.74312950    -0.14500
C2130       C  0.97463431  0.61375188  0.75918115    -0.29700
H2131       H  0.51657725  0.62139352  0.72782717     0.14500
H2132       H  0.95127554  0.62347175  0.77517222     0.15100
C2133       C  0.00280485  0.86875317  0.75391704    -0.14500
C2134       C  0.97248313  0.88680922  0.74715135    -0.29700
H2135       H  0.53024840  0.87996895  0.76386759     0.14500
H2136       H  0.94568486  0.87603001  0.74037916     0.15100
C2137       C  0.51161616  0.63187534  0.50789917    -0.14500
C2138       C  0.49768572  0.61223575  0.48254589    -0.29700
H2139       H  0.52732407  0.62265231  0.53111243     0.14500
H2140       H  0.97339267  0.61912861  0.96453966     0.15100
C2141       C  0.52408156  0.88617875  0.49962745    -0.14500
C2142       C  0.49286099  0.86960069  0.50590997    -0.29700
H2143       H  0.55039766  0.87427463  0.49258656     0.14500
H2144       H  0.96890472  0.87859687  0.01609703     0.15100
loop_ 
_geom_bond_atom_site_label_1 
_geom_bond_atom_site_label_2 
_geom_bond_distance 
_geom_bond_site_symmetry_2 
_ccdc_geom_bond_type 
Zn1           O5   1.963       .  S
Zn1           O6   2.023       .  S
Zn1          O10   2.030       .  S
Zn1          O17   2.015       .  S
Zn2        O1345   1.979       .  S
Zn2           O7   2.040       .  S
Zn2           O9   2.046       .  S
Zn2          O13   2.071       .  S
Zn3        O1077   1.969       .  S
Zn3           O8   2.038       .  S
Zn3          O11   2.000       .  S
Zn3          O14   2.008       .  S
Zn4         O273   1.972   1_455  S
Zn4          O12   2.024       .  S
Zn4          O15   2.063       .  S
Zn4          O16   2.016       .  S
O5        Zn1342   1.979   1_454  S
O5        Zn1075   1.972   1_455  S
O5         Zn272   1.970   1_554  S
O6           C18   1.275       .  A
O7          C287   1.277       .  A
O8         C1092   1.273       .  A
O9         C1358   1.278       .  A
O10          C20   1.274   1_455  A
O11          C19   1.271       .  A
O12         C289   1.275   1_455  A
O13        C1094   1.279       .  A
O14        C1093   1.272       .  A
O15          C22   1.279       .  A
O16         C291   1.272       .  A
O17          C23   1.272       .  A
C18        O1349   1.278   1_454  A
C18         C261   1.480       .  S
C19         O275   1.276   1_554  A
C19          C69   1.460       .  S
C20        O1080   1.274       .  A
C20        C1116   1.482       .  S
C21         O280   1.275   1_654  A
C21        O1086   1.273       .  A
C21         C266   1.472       .  S
C22        O1085   1.278   1_455  A
C22        C1113   1.493       .  S
C23         O284   1.273   1_554  A
C23          C65   1.458       .  S
Zn24       O1100   1.959       .  S
Zn24         O29   2.057       .  S
Zn24         O33   2.011       .  S
Zn24         O40   2.008       .  S
Zn25         O28   1.967       .  S
Zn25         O30   2.007       .  S
Zn25         O32   2.064       .  S
Zn25         O36   2.031       .  S
Zn26         O28   1.976       .  S
Zn26         O31   2.015       .  S
Zn26         O34   1.999       .  S
Zn26         O37   2.042       .  S
Zn27       O1100   1.971       .  S
Zn27         O35   2.025       .  S
Zn27         O38   1.990       .  S
Zn27         O39   2.009       .  S
O28       Zn1096   1.960       .  S
O28       Zn1099   1.967       .  S
O29        C1113   1.277       .  A
O30          C42   1.274       .  A
O31          C43   1.274       .  A
O32          C41   1.278       .  A
O33        C1115   1.272       .  A
O34          C42   1.271       .  A
O35        C1116   1.273   1_455  A
O36          C45   1.276       .  A
O37          C44   1.274       .  A
O38        C1117   1.270       .  A
O39          C46   1.270       .  A
O40          C46   1.274       .  A
C41        O1101   1.278       .  A
C41        C1094   1.495       .  S
C42          C89   1.460       .  S
C43        O1105   1.275       .  A
C43         C257   1.473       .  S
C44        O1107   1.272       .  A
C44        C1092   1.477       .  S
C45        O1110   1.271       .  A
C45         C253   1.471       .  S
C46          C91   1.463       .  S
Zn47        O319   1.960       .  S
Zn47         O52   2.011       .  S
Zn47         O56   2.039       .  S
Zn47         O63   1.994       .  S
Zn48         O51   1.980       .  S
Zn48         O53   2.055       .  S
Zn48         O55   2.048       .  S
Zn48         O59   2.071       .  S
Zn49        O319   1.963       .  S
Zn49         O54   2.027       .  S
Zn49         O57   1.979       .  S
Zn49         O60   1.993       .  S
Zn50         O51   1.972       .  S
Zn50         O58   2.020       .  S
Zn50         O61   2.061       .  S
Zn50         O62   2.035       .  S
O51        Zn315   1.962   1_554  S
O51        Zn317   1.959   1_554  S
O52         C332   1.273       .  A
O53          C65   1.277       .  A
O54          C66   1.271       .  A
O55          C64   1.279       .  A
O56          C66   1.272       .  A
O57         C333   1.268       .  A
O58          C67   1.275   1_554  A
O59          C68   1.279       .  A
O60         C335   1.269       .  A
O61          C68   1.277       .  A
O62          C69   1.275       .  A
O63         C337   1.270       .  A
C64         O320   1.274   1_554  A
C64         C249   1.477   1_554  S
C65         O325   1.267   1_554  A
C66          C90   1.472       .  S
C67         O328   1.269       .  A
C67         C245   1.466       .  S
C68          C87   1.489       .  S
C69         O331   1.271   1_554  A
Zn70         O74   1.965       .  S
Zn70         O75   2.060       .  S
Zn70         O79   2.024       .  S
Zn70         O86   2.019       .  S
Zn71         O74   1.973       .  S
Zn71         O76   2.051       .  S
Zn71         O78   2.072       .  S
Zn71         O82   2.047       .  S
Zn72         O74   1.956       .  S
Zn72         O77   1.982       .  S
Zn72         O80   2.008       .  S
Zn72         O83   2.040       .  S
Zn73         O74   1.956       .  S
Zn73         O81   2.026       .  S
Zn73         O84   1.967       .  S
Zn73         O85   1.996       .  S
O75          C87   1.277       .  A
O76          C88   1.279       .  A
O77          C89   1.270       .  A
O78          C87   1.279       .  A
O79          C89   1.275       .  A
O80          C88   1.273       .  A
O81          C90   1.270       .  A
O82          C91   1.278       .  A
O83          C90   1.272       .  A
O84          C91   1.269       .  A
O85          C92   1.269       .  A
O86          C92   1.275       .  A
C88         C238   1.479       .  S
C92         C241   1.467       .  S
N93          C98   1.353       .  A
N93          C97   1.355   1_655  A
N93         H125   1.040   1_554  S
N94         C101   1.353       .  A
N94         C102   1.351       .  A
N95         C100   1.355       .  A
N95          C99   1.349       .  A
N95         H126   1.037       .  S
N96         C103   1.347       .  A
N96         C104   1.350       .  A
C97         C105   1.384       .  A
C97         C113   1.412   1_554  A
C98         C114   1.416       .  A
C98         C106   1.389       .  A
C99         C107   1.386       .  A
C99         C652   1.409   1_545  A
C100        C108   1.388       .  A
C100        C383   1.418   1_455  A
C101        C109   1.386       .  A
C101        C381   1.410       .  A
C102        C116   1.410       .  A
C102        C110   1.385       .  A
C103        C111   1.387       .  A
C103        C650   1.406   1_545  A
C104        C112   1.387       .  A
C104        C115   1.413   1_654  A
C105        C106   1.372   1_455  A
C105        H117   1.082       .  S
C106        H118   1.078       .  S
C107        C108   1.377       .  A
C107        H119   1.082       .  S
C108        H120   1.082       .  S
C109        C110   1.365       .  A
C109        H121   1.082       .  S
C110        H122   1.082       .  S
C111        C112   1.375       .  A
C111        H123   1.083       .  S
C112        H124   1.082       .  S
C113        C265   1.492       .  S
C113        C369   1.410       .  A
C114        C639   1.406       .  A
C114        C235   1.442       .  S
C115        C262   1.488   1_455  S
C115        C368   1.419       .  A
C116        C635   1.409       .  A
C116        C234   1.440       .  S
N127        C132   1.355       .  A
N127        C131   1.360       .  A
N127        H159   1.041       .  S
N128        C135   1.349       .  A
N128        C136   1.348       .  A
N129        C134   1.352       .  A
N129        C133   1.353       .  A
N129        H160   1.037       .  S
N130        C137   1.349       .  A
N130        C138   1.352       .  A
C131        C139   1.385       .  A
C131        C147   1.421   1_455  A
C132        C148   1.417       .  A
C132        C140   1.386       .  A
C133        C141   1.388       .  A
C133        C686   1.412   1_545  A
C134        C149   1.412       .  A
C134        C142   1.387       .  A
C135        C147   1.410       .  A
C135        C143   1.387       .  A
C136        C150   1.408       .  A
C136        C144   1.386       .  A
C137        C145   1.389       .  A
C137        C684   1.409   1_545  A
C138        C146   1.386       .  A
C138        C149   1.411   1_455  A
C139        C140   1.368       .  A
C139        H151   1.082       .  S
C140        H152   1.076       .  S
C141        C142   1.372       .  A
C141        H153   1.083       .  S
C142        H154   1.082       .  S
C143        C144   1.370       .  A
C143        H155   1.082       .  S
C144        H156   1.083       .  S
C145        C146   1.367       .  A
C145        H157   1.082       .  S
C146        H158   1.082       .  S
C147       C1330   1.495       .  S
C148        C673   1.409       .  A
C148        C233   1.446       .  S
C149       C1326   1.480       .  S
C150        C669   1.412       .  A
C150        C236   1.442       .  S
N161        C166   1.355       .  A
N161        C165   1.350       .  A
N161        H193   1.036       .  S
N162        C169   1.350       .  A
N162        C170   1.352       .  A
N163        C168   1.353       .  A
N163        C167   1.354       .  A
N163        H194   1.040       .  S
N164        C171   1.350       .  A
N164        C172   1.347       .  A
C165        C173   1.385       .  A
C165        C181   1.411       .  A
C166        C174   1.388       .  A
C166        C450   1.418       .  A
C167        C175   1.386       .  A
C167        C184   1.410       .  A
C168        C176   1.388       .  A
C168        C719   1.412   1_545  A
C169        C177   1.389       .  A
C169        C717   1.412       .  A
C170        C178   1.384       .  A
C170        C452   1.410       .  A
C171        C179   1.388       .  A
C171        C182   1.418       .  A
C172        C180   1.386       .  A
C172        C183   1.407       .  A
C173        C174   1.378       .  A
C173        H185   1.080       .  S
C174        H186   1.082       .  S
C175        C176   1.369       .  A
C175        H187   1.082       .  S
C176        H188   1.080       .  S
C177        C178   1.371       .  A
C177        H189   1.082       .  S
C178        H190   1.082       .  S
C179        C180   1.373       .  A
C179        H191   1.082       .  S
C180        H192   1.082       .  S
C181        C705   1.412       .  A
C181        C229   1.441       .  S
C182        C250   1.489       .  S
C182        C434   1.420   1_554  A
C183        C704   1.412       .  A
C183        C231   1.439       .  S
C184        C246   1.488       .  S
C184        C438   1.412   1_554  A
N195        C200   1.350       .  A
N195        C199   1.354       .  A
N195        H227   1.036       .  S
N196        C203   1.351       .  A
N196        C204   1.348       .  A
N197        C202   1.355       .  A
N197        C201   1.353       .  A
N197        H228   1.039       .  S
N198        C205   1.350       .  A
N198        C206   1.351       .  A
C199        C207   1.388       .  A
C199        C215   1.416       .  A
C200        C216   1.408   1_545  A
C200        C208   1.385       .  A
C201        C209   1.391       .  A
C201        C754   1.416       .  A
C202        C217   1.413       .  A
C202        C210   1.385       .  A
C203        C215   1.414       .  A
C203        C211   1.386       .  A
C204        C218   1.409   1_545  A
C204        C212   1.387       .  A
C205        C213   1.386       .  A
C205        C752   1.407       .  A
C206        C214   1.386       .  A
C206        C217   1.406       .  A
C207        C208   1.376       .  A
C207        H219   1.082       .  S
C208        H220   1.080       .  S
C209        C210   1.372       .  A
C209        H221   1.082       .  S
C210        H222   1.082       .  S
C211        C212   1.376       .  A
C211        H223   1.082       .  S
C212        H224   1.083       .  S
C213        C214   1.365       .  A
C213        H225   1.080       .  S
C214        H226   1.082       .  S
C215        C237   1.487       .  S
C216        C741   1.407       .  A
C216        C232   1.438       .  S
C217        C242   1.486       .  S
C218        C737   1.416       .  A
C218        C230   1.442       .  S
C229        C766   1.201       .  T
C230        C765   1.201   1_565  T
C231        C768   1.200       .  T
C232        C767   1.200       .  T
C233        C234   1.201       .  T
C235        C236   1.201       .  T
C237        C238   1.341       .  D
C237        H239   1.086       .  S
C238        H240   1.087       .  S
C241        C242   1.339       .  D
C241        H243   1.086       .  S
C242        H244   1.087       .  S
C245        C246   1.340   1_556  D
C245        H515   1.086       .  S
C246        H248   1.087       .  S
H247        C513   1.086       .  S
C249        C250   1.342   1_556  D
C249        H519   1.088       .  S
C250        H252   1.086       .  S
H251        C517   1.088       .  S
C253        C254   1.340       .  D
C253       H1327   1.087       .  S
C254       C1221   1.483       .  S
C254        H256   1.086       .  S
H255       C1325   1.088       .  S
C257        C258   1.347       .  D
C257       H1331   1.086       .  S
C258       C1219   1.497       .  S
C258        H260   1.086       .  S
H259       C1329   1.086       .  S
C261        C262   1.343   1_454  D
C261        H263   1.087       .  S
C262       H1604   1.086       .  S
H264       C1602   1.086       .  S
C265        C266   1.345   1_456  D
C265        H267   1.086       .  S
C266       H1608   1.086       .  S
H268       C1606   1.086       .  S
Zn269       O273   1.965   1_455  S
Zn269       O274   2.022       .  S
Zn269       O278   2.026       .  S
Zn269       O285   2.020       .  S
Zn270      O1077   1.978   1_556  S
Zn270       O275   2.042       .  S
Zn270       O277   2.041       .  S
Zn270       O281   2.067       .  S
Zn271      O1345   1.974       .  S
Zn271       O276   2.037       .  S
Zn271       O279   1.998       .  S
Zn271       O282   2.010       .  S
Zn272       O280   2.017       .  S
Zn272       O283   2.061       .  S
Zn272       O284   2.019       .  S
O273      Zn1074   1.978       .  S
O273      Zn1343   1.972       .  S
O274        C286   1.274       .  A
O276       C1360   1.273       .  A
O277       C1090   1.278   1_556  A
O278        C288   1.273   1_455  A
O279        C287   1.271       .  A
O281       C1362   1.278       .  A
O282       C1361   1.271       .  A
O283        C290   1.278   1_455  A
O285        C291   1.273       .  A
C286       O1081   1.277   1_455  A
C286        C529   1.480       .  S
C287        C337   1.458       .  S
C288       O1348   1.272       .  A
C288       C1384   1.477       .  S
C289       O1354   1.271       .  A
C289        C534   1.471       .  S
C290       O1353   1.277       .  A
C290       C1381   1.493       .  S
C291        C333   1.459       .  S
Zn292      O1368   1.959   1_455  S
Zn292       O297   2.052       .  S
Zn292       O301   2.020       .  S
Zn292       O308   2.011       .  S
Zn293       O296   1.967       .  S
Zn293       O298   2.014       .  S
Zn293       O300   2.068       .  S
Zn293       O304   2.029       .  S
Zn294       O296   1.975       .  S
Zn294       O299   2.018       .  S
Zn294       O302   2.013       .  S
Zn294       O305   2.049       .  S
Zn295      O1368   1.967   1_455  S
Zn295       O303   2.013       .  S
Zn295       O306   1.984       .  S
Zn295       O307   1.997       .  S
O296      Zn1364   1.960       .  S
O296      Zn1367   1.966       .  S
O297       C1381   1.276   1_455  A
O298        C310   1.275       .  A
O299        C311   1.275       .  A
O300        C309   1.278       .  A
O301       C1383   1.274       .  A
O302        C310   1.273       .  A
O303       C1384   1.271   1_455  A
O304        C313   1.276       .  A
O305        C312   1.275       .  A
O306       C1385   1.269   1_455  A
O307        C314   1.269       .  A
O308        C314   1.274       .  A
C309       O1369   1.277       .  A
C309       C1362   1.493       .  S
C310        C357   1.465       .  S
C311       O1373   1.274       .  A
C311        C525   1.472       .  S
C312       O1375   1.272       .  A
C312       C1360   1.479       .  S
C313       O1378   1.270       .  A
C313        C521   1.470       .  S
C314        C359   1.462       .  S
Zn315       O320   2.011       .  S
Zn315       O324   2.044       .  S
Zn315       O331   2.003       .  S
Zn316       O319   1.980       .  S
Zn316       O321   2.056       .  S
Zn316       O323   2.064       .  S
Zn316       O327   2.075       .  S
Zn317       O322   2.020       .  S
Zn317       O325   1.973       .  S
Zn317       O328   1.994       .  S
Zn318       O319   1.973       .  S
Zn318       O326   2.022       .  S
Zn318       O329   2.065       .  S
Zn318       O330   2.036       .  S
O321        C333   1.278       .  A
O322        C334   1.270       .  A
O323        C332   1.281       .  A
O324        C334   1.273       .  A
O326        C335   1.275       .  A
O327        C336   1.279       .  A
O329        C336   1.278       .  A
O330        C337   1.275       .  A
C332        C517   1.482       .  S
C334        C358   1.472       .  S
C335        C513   1.467       .  S
C336        C355   1.490       .  S
Zn338       O342   1.969       .  S
Zn338       O343   2.062       .  S
Zn338       O347   2.036       .  S
Zn338       O354   2.028       .  S
Zn339       O342   1.975       .  S
Zn339       O344   2.046       .  S
Zn339       O346   2.076       .  S
Zn339       O350   2.038       .  S
Zn340       O342   1.958       .  S
Zn340       O345   1.988       .  S
Zn340       O348   2.006       .  S
Zn340       O351   2.036       .  S
Zn341       O342   1.961       .  S
Zn341       O349   2.029       .  S
Zn341       O352   1.972       .  S
Zn341       O353   1.988       .  S
O343        C355   1.277       .  A
O344        C356   1.278       .  A
O345        C357   1.271       .  A
O346        C355   1.279       .  A
O347        C357   1.276       .  A
O348        C356   1.272       .  A
O349        C358   1.271       .  A
O350        C359   1.277       .  A
O351        C358   1.272       .  A
O352        C359   1.268       .  A
O353        C360   1.268       .  A
O354        C360   1.276       .  A
C356        C506   1.476       .  S
C360        C509   1.467       .  S
N361        C366   1.354       .  A
N361        C365   1.356   1_655  A
N361        H393   1.041       .  S
N362        C369   1.353       .  A
N362        C370   1.351       .  A
N363        C368   1.355       .  A
N363        C367   1.349       .  A
N363        H394   1.036       .  S
N364        C371   1.347       .  A
N364        C372   1.350       .  A
C365        C373   1.384   1_455  A
C365        C381   1.414       .  A
C366        C382   1.418       .  A
C366        C374   1.389       .  A
C367        C375   1.386       .  A
C367        C920   1.408   1_545  A
C368        C376   1.388       .  A
C369        C377   1.386       .  A
C370        C384   1.410       .  A
C370        C378   1.385       .  A
C371        C379   1.388       .  A
C371        C918   1.407   1_545  A
C372        C380   1.387       .  A
C372        C383   1.413       .  A
C373        C374   1.372       .  A
C373        H385   1.082   1_655  S
C374        H386   1.078       .  S
C375        C376   1.378       .  A
C375        H387   1.083       .  S
C376        H388   1.082       .  S
C377        C378   1.367       .  A
C377        H389   1.082       .  S
C378        H390   1.082       .  S
C379        C380   1.374       .  A
C379        H391   1.083       .  S
C380        H392   1.082       .  S
C381        C533   1.492       .  S
C382        C907   1.407       .  A
C382        C503   1.443       .  S
C383        C530   1.488       .  S
C384        C903   1.407       .  A
C384        C502   1.439       .  S
N395        C400   1.355       .  A
N395        C399   1.359   1_455  A
N395        H427   1.042       .  S
N396        C403   1.350       .  A
N396        C404   1.348       .  A
N397        C402   1.353       .  A
N397        C401   1.353       .  A
N397        H428   1.036       .  S
N398        C405   1.349       .  A
N398        C406   1.351       .  A
C399        C407   1.384   1_655  A
C399        C415   1.418       .  A
C400        C416   1.416       .  A
C400        C408   1.386       .  A
C401        C409   1.388       .  A
C401        C954   1.412       .  A
C402        C417   1.412       .  A
C402        C410   1.387       .  A
C403        C415   1.409       .  A
C403        C411   1.387       .  A
C404        C418   1.408       .  A
C404        C412   1.386       .  A
C405        C413   1.388       .  A
C405        C952   1.408   1_545  A
C406        C414   1.387       .  A
C406        C417   1.412   1_455  A
C407        C408   1.367       .  A
C407        H419   1.082   1_455  S
C408        H420   1.075       .  S
C409        C410   1.373       .  A
C409        H421   1.083       .  S
C410        H422   1.082       .  S
C411        C412   1.369       .  A
C411        H423   1.082       .  S
C412        H424   1.083       .  S
C413        C414   1.369       .  A
C413        H425   1.082       .  S
C414        H426   1.082       .  S
C415       C1598   1.496       .  S
C416        C941   1.408       .  A
C416        C501   1.446       .  S
C417       C1594   1.480       .  S
C418        C937   1.412       .  A
C418        C504   1.442       .  S
N429        C434   1.355       .  A
N429        C433   1.350       .  A
N429        H461   1.031       .  S
N430        C437   1.352       .  A
N430        C438   1.352       .  A
N431        C436   1.351       .  A
N431        C435   1.353       .  A
N431        H462   1.040       .  S
N432        C439   1.352       .  A
N432        C440   1.349       .  A
C433        C441   1.386       .  A
C433        C449   1.414       .  A
C434        C442   1.388       .  A
C435        C443   1.386       .  A
C435        C452   1.407       .  A
C436        C987   1.410       .  A
C436        C444   1.389       .  A
C437        C985   1.415       .  A
C437        C445   1.389       .  A
C438        C446   1.385       .  A
C439        C447   1.386       .  A
C439        C450   1.415       .  A
C440        C448   1.386       .  A
C440        C451   1.409       .  A
C441        C442   1.377       .  A
C441        H453   1.079       .  S
C442        H454   1.082       .  S
C443        C444   1.368       .  A
C443        H455   1.082       .  S
C444        H456   1.080       .  S
C445        C446   1.370       .  A
C445        H457   1.082       .  S
C446        H458   1.082       .  S
C447        C448   1.375       .  A
C447        H459   1.082       .  S
C448        H460   1.081       .  S
C449        C973   1.415       .  A
C449        C497   1.443       .  S
C450        C518   1.491       .  S
C451        C972   1.410       .  A
C451        C499   1.439       .  S
C452        C514   1.486       .  S
N463        C468   1.351       .  A
N463        C467   1.354       .  A
N463        H495   1.036       .  S
N464        C471   1.351       .  A
N464        C472   1.348       .  A
N465        C470   1.355       .  A
N465        C469   1.354       .  A
N465        H496   1.040       .  S
N466        C473   1.349       .  A
N466        C474   1.351       .  A
C467        C475   1.390       .  A
C467        C483   1.420       .  A
C468        C484   1.409       .  A
C468        C476   1.384       .  A
C469        C477   1.390       .  A
C469       C1022   1.417       .  A
C470        C485   1.413       .  A
C470        C478   1.384       .  A
C471        C483   1.415       .  A
C471        C479   1.387       .  A
C472        C486   1.409   1_545  A
C472        C480   1.387       .  A
C473        C481   1.386       .  A
C473       C1020   1.406       .  A
C474        C482   1.386       .  A
C474        C485   1.405       .  A
C475        C476   1.375       .  A
C475        H487   1.081       .  S
C476        H488   1.081       .  S
C477        C478   1.373       .  A
C477        H489   1.082       .  S
C478        H490   1.082       .  S
C479        C480   1.376       .  A
C479        H491   1.082       .  S
C480        H492   1.082       .  S
C481        C482   1.363       .  A
C481        H493   1.079       .  S
C482        H494   1.082       .  S
C483        C505   1.488       .  S
C484       C1009   1.406   1_545  A
C484        C500   1.439       .  S
C485        C510   1.486       .  S
C486       C1005   1.417       .  A
C486        C498   1.444       .  S
C497       C1034   1.202       .  T
C498       C1033   1.202   1_565  T
C499       C1036   1.200       .  T
C500       C1035   1.200       .  T
C501        C502   1.201       .  T
C503        C504   1.201       .  T
C505        C506   1.342       .  D
C505        H507   1.086       .  S
C506        H508   1.088       .  S
C509        C510   1.337       .  D
C509        H511   1.087       .  S
C510        H512   1.087       .  S
C513        C514   1.340       .  D
C514        H516   1.087       .  S
C517        C518   1.342       .  D
C518        H520   1.086       .  S
C521        C522   1.339       .  D
C521       H1595   1.088       .  S
C522       C1489   1.482       .  S
C522        H524   1.086       .  S
H523       C1593   1.088   1_455  S
C525        C526   1.345       .  D
C525       H1599   1.086       .  S
C526       C1487   1.495       .  S
C526        H528   1.087       .  S
H527       C1597   1.086       .  S
C529        C530   1.343   1_455  D
C529        H531   1.087       .  S
C530       H1336   1.086       .  S
H532       C1334   1.086       .  S
C533        C534   1.343   1_455  D
C533        H535   1.087       .  S
C534       H1340   1.086       .  S
H536       C1338   1.086       .  S
Zn537       O541   1.963       .  S
Zn537       O542   2.022       .  S
Zn537       O546   2.032       .  S
Zn537       O553   2.015       .  S
Zn538      O1881   1.980       .  S
Zn538       O543   2.040       .  S
Zn538       O545   2.047       .  S
Zn538       O549   2.071       .  S
Zn539      O1613   1.970       .  S
Zn539       O544   2.042       .  S
Zn539       O547   2.004       .  S
Zn539       O550   2.012       .  S
Zn540       O809   1.972   1_455  S
Zn540       O548   2.027       .  S
Zn540       O551   2.065       .  S
Zn540       O552   2.016       .  S
O541      Zn1878   1.978   1_454  S
O541      Zn1611   1.971   1_455  S
O541       Zn808   1.969   1_554  S
O542        C554   1.274       .  A
O543        C823   1.277       .  A
O544       C1628   1.274       .  A
O545       C1894   1.278       .  A
O546        C556   1.274   1_455  A
O547        C555   1.272       .  A
O548        C825   1.276   1_455  A
O549       C1630   1.279       .  A
O550       C1629   1.272       .  A
O551        C558   1.279       .  A
O552        C827   1.272       .  A
O553        C559   1.272       .  A
C554       O1885   1.278   1_454  A
C554        C797   1.479       .  S
C555        O811   1.276   1_554  A
C555        C605   1.460       .  S
C556       O1616   1.274       .  A
C556       C1652   1.483       .  S
C557        O816   1.274   1_654  A
C557       O1622   1.273       .  A
C557        C802   1.472       .  S
C558       O1621   1.278   1_455  A
C558       C1649   1.495       .  S
C559        O820   1.273   1_554  A
C559        C601   1.458       .  S
Zn560      O1636   1.959       .  S
Zn560       O565   2.058       .  S
Zn560       O569   2.009       .  S
Zn560       O576   2.008       .  S
Zn561       O564   1.967       .  S
Zn561       O566   2.008       .  S
Zn561       O568   2.064       .  S
Zn561       O572   2.029       .  S
Zn562       O564   1.976       .  S
Zn562       O567   2.013       .  S
Zn562       O570   1.999       .  S
Zn562       O573   2.043       .  S
Zn563      O1636   1.971       .  S
Zn563       O571   2.024       .  S
Zn563       O574   1.988       .  S
Zn563       O575   2.008       .  S
O564      Zn1632   1.959       .  S
O564      Zn1635   1.966       .  S
O565       C1649   1.277       .  A
O566        C578   1.274       .  A
O567        C579   1.274       .  A
O568        C577   1.277       .  A
O569       C1651   1.272       .  A
O570        C578   1.271       .  A
O571       C1652   1.273   1_455  A
O572        C581   1.276       .  A
O573        C580   1.274       .  A
O574       C1653   1.270       .  A
O575        C582   1.270       .  A
O576        C582   1.274       .  A
C577       O1637   1.278       .  A
C577       C1630   1.494       .  S
C578        C625   1.460       .  S
C579       O1641   1.275       .  A
C579        C793   1.472       .  S
C580       O1643   1.272       .  A
C580       C1628   1.478       .  S
C581       O1646   1.271       .  A
C581        C789   1.472       .  S
C582        C627   1.463       .  S
Zn583       O855   1.961       .  S
Zn583       O588   2.010       .  S
Zn583       O592   2.038       .  S
Zn583       O599   1.995       .  S
Zn584       O587   1.980       .  S
Zn584       O589   2.055       .  S
Zn584       O591   2.049       .  S
Zn584       O595   2.070       .  S
Zn585       O855   1.964       .  S
Zn585       O590   2.028       .  S
Zn585       O593   1.980       .  S
Zn585       O596   1.995       .  S
Zn586       O587   1.973       .  S
Zn586       O594   2.024       .  S
Zn586       O597   2.060       .  S
Zn586       O598   2.037       .  S
O587       Zn851   1.962   1_554  S
O587       Zn853   1.960   1_554  S
O588        C868   1.273       .  A
O589        C601   1.277       .  A
O590        C602   1.271       .  A
O591        C600   1.279       .  A
O592        C602   1.272       .  A
O593        C869   1.268       .  A
O594        C603   1.275   1_554  A
O595        C604   1.279       .  A
O596        C871   1.269       .  A
O597        C604   1.277       .  A
O598        C605   1.275       .  A
O599        C873   1.270       .  A
C600        O856   1.273   1_554  A
C600        C785   1.477       .  S
C601        O861   1.267   1_554  A
C602        C626   1.472       .  S
C603        O864   1.270       .  A
C603        C781   1.468       .  S
C604        C623   1.488       .  S
C605        O867   1.271   1_554  A
Zn606       O610   1.965       .  S
Zn606       O611   2.058       .  S
Zn606       O615   2.023       .  S
Zn606       O622   2.018       .  S
Zn607       O610   1.974       .  S
Zn607       O612   2.052       .  S
Zn607       O614   2.071       .  S
Zn607       O618   2.045       .  S
Zn608       O610   1.956       .  S
Zn608       O613   1.984       .  S
Zn608       O616   2.010       .  S
Zn608       O619   2.040       .  S
Zn609       O610   1.958       .  S
Zn609       O617   2.026       .  S
Zn609       O620   1.970       .  S
Zn609       O621   1.997       .  S
O611        C623   1.277       .  A
O612        C624   1.279       .  A
O613        C625   1.270       .  A
O614        C623   1.279       .  A
O615        C625   1.275       .  A
O616        C624   1.273       .  A
O617        C626   1.271       .  A
O618        C627   1.278       .  A
O619        C626   1.272       .  A
O620        C627   1.269       .  A
O621        C628   1.269       .  A
O622        C628   1.275       .  A
C624        C774   1.479       .  S
C628        C777   1.467       .  S
N629        C634   1.353       .  A
N629        C633   1.355   1_655  A
N629        H661   1.040   1_554  S
N630        C637   1.353       .  A
N630        C638   1.351       .  A
N631        C636   1.355       .  A
N631        C635   1.349       .  A
N631        H662   1.037       .  S
N632        C639   1.347       .  A
N632        C640   1.350       .  A
C633        C641   1.384   1_455  A
C633        C649   1.412   1_554  A
C634        C650   1.415       .  A
C634        C642   1.389       .  A
C635        C643   1.386       .  A
C636        C919   1.418   1_455  A
C636        C644   1.388       .  A
C637        C917   1.410       .  A
C637        C645   1.387       .  A
C638        C652   1.410       .  A
C638        C646   1.386       .  A
C639        C647   1.387       .  A
C640        C648   1.387       .  A
C640        C651   1.413   1_654  A
C641        C642   1.371       .  A
C641        H653   1.082   1_655  S
C642        H654   1.079       .  S
C643        C644   1.377       .  A
C643        H655   1.083       .  S
C644        H656   1.082       .  S
C645        C646   1.365       .  A
C645        H657   1.082       .  S
C646        H658   1.082       .  S
C647        C648   1.375       .  A
C647        H659   1.083       .  S
C648        H660   1.082       .  S
C649        C801   1.492       .  S
C649        C905   1.410       .  A
C650        C771   1.441       .  S
C651        C798   1.487   1_455  S
C651        C904   1.418       .  A
C652        C770   1.440       .  S
N663        C668   1.355       .  A
N663        C667   1.360       .  A
N663        H695   1.041       .  S
N664        C671   1.349       .  A
N664        C672   1.348       .  A
N665        C670   1.352       .  A
N665        C669   1.353       .  A
N665        H696   1.036       .  S
N666        C673   1.349       .  A
N666        C674   1.351       .  A
C667        C675   1.386       .  A
C667        C683   1.421   1_455  A
C668        C684   1.417       .  A
C668        C676   1.386       .  A
C669        C677   1.388       .  A
C670        C685   1.412       .  A
C670        C678   1.387       .  A
C671        C683   1.410       .  A
C671        C679   1.388       .  A
C672        C686   1.408       .  A
C672        C680   1.386       .  A
C673        C681   1.389       .  A
C674        C682   1.386       .  A
C674        C685   1.411   1_455  A
C675        C676   1.368       .  A
C675        H687   1.082       .  S
C676        H688   1.077       .  S
C677        C678   1.372       .  A
C677        H689   1.083       .  S
C678        H690   1.082       .  S
C679        C680   1.369       .  A
C679        H691   1.082       .  S
C680        H692   1.083       .  S
C681        C682   1.367       .  A
C681        H693   1.082       .  S
C682        H694   1.082       .  S
C683       C1866   1.494       .  S
C684        C769   1.446       .  S
C685       C1862   1.479       .  S
C686        C772   1.441   1_565  S
N697        C702   1.355       .  A
N697        C701   1.350       .  A
N697        H729   1.037       .  S
N698        C705   1.350       .  A
N698        C706   1.352       .  A
N699        C704   1.353       .  A
N699        C703   1.354       .  A
N699        H730   1.039       .  S
N700        C707   1.350       .  A
N700        C708   1.347       .  A
C701        C709   1.385       .  A
C701        C717   1.411   1_565  A
C702        C986   1.418       .  A
C702        C710   1.388       .  A
C703        C711   1.386       .  A
C703        C720   1.411   1_554  A
C704        C712   1.388       .  A
C705        C713   1.389       .  A
C706        C988   1.410       .  A
C706        C714   1.384       .  A
C707        C715   1.388       .  A
C707        C718   1.417       .  A
C708        C716   1.385       .  A
C708        C719   1.407       .  A
C709        C710   1.378       .  A
C709        H721   1.080       .  S
C710        H722   1.082       .  S
C711        C712   1.368       .  A
C711        H723   1.082       .  S
C712        H724   1.080       .  S
C713        C714   1.370       .  A
C713        H725   1.082       .  S
C714        H726   1.082       .  S
C715        C716   1.373       .  A
C715        H727   1.082       .  S
C716        H728   1.082       .  S
C717        C765   1.441       .  S
C718        C786   1.489       .  S
C718        C970   1.420   1_554  A
C719        C767   1.439       .  S
C720        C782   1.489   1_556  S
C720        C974   1.413       .  A
N731        C736   1.350       .  A
N731        C735   1.354       .  A
N731        H763   1.036       .  S
N732        C739   1.352       .  A
N732        C740   1.348       .  A
N733        C738   1.354       .  A
N733        C737   1.353       .  A
N733        H764   1.039       .  S
N734        C741   1.350       .  A
N734        C742   1.351       .  A
C735        C743   1.388       .  A
C735        C751   1.417       .  A
C736        C752   1.409       .  A
C736        C744   1.385       .  A
C737        C745   1.391       .  A
C738        C753   1.413       .  A
C738        C746   1.385       .  A
C739        C751   1.414       .  A
C739        C747   1.386       .  A
C740        C754   1.410       .  A
C740        C748   1.387       .  A
C741        C749   1.386       .  A
C742        C750   1.386       .  A
C742        C753   1.406       .  A
C743        C744   1.375       .  A
C743        H755   1.082       .  S
C744        H756   1.080       .  S
C745        C746   1.372       .  A
C745        H757   1.082       .  S
C746        H758   1.082       .  S
C747        C748   1.376       .  A
C747        H759   1.082       .  S
C748        H760   1.083       .  S
C749        C750   1.366       .  A
C749        H761   1.080       .  S
C750        H762   1.082       .  S
C751        C773   1.488       .  S
C752        C768   1.439       .  S
C753        C778   1.486       .  S
C754        C766   1.442       .  S
C769        C770   1.201       .  T
C771        C772   1.201   1_565  T
C773        C774   1.342       .  D
C773        H775   1.086       .  S
C774        H776   1.087       .  S
C777        C778   1.340       .  D
C777        H779   1.086       .  S
C778        H780   1.087       .  S
C781        C782   1.340   1_556  D
C781       H1051   1.086       .  S
C782        H784   1.087       .  S
H783       C1049   1.086       .  S
C785        C786   1.342       .  D
C785       H1055   1.088   1_554  S
C786        H788   1.086       .  S
H787       C1053   1.088       .  S
C789        C790   1.340       .  D
C789       H1863   1.087       .  S
C790       C1757   1.482       .  S
C790        H792   1.086       .  S
H791       C1861   1.088       .  S
C793        C794   1.347       .  D
C793       H1867   1.086       .  S
C794       C1755   1.496       .  S
C794        H796   1.086       .  S
H795       C1865   1.086       .  S
C797        C798   1.343   1_454  D
C797        H799   1.087       .  S
C798       H2140   1.086       .  S
H800       C2138   1.086       .  S
C801        C802   1.345   1_456  D
C801        H803   1.086       .  S
C802       H2144   1.086       .  S
H804       C2142   1.086       .  S
Zn805       O809   1.966   1_455  S
Zn805       O810   2.022       .  S
Zn805       O814   2.027       .  S
Zn805       O821   2.021       .  S
Zn806      O1613   1.978   1_556  S
Zn806       O811   2.040       .  S
Zn806       O813   2.043       .  S
Zn806       O817   2.069       .  S
Zn807      O1881   1.974       .  S
Zn807       O812   2.039       .  S
Zn807       O815   1.998       .  S
Zn807       O818   2.010       .  S
Zn808       O816   2.016       .  S
Zn808       O819   2.059       .  S
Zn808       O820   2.019       .  S
O809      Zn1610   1.977       .  S
O809      Zn1879   1.972       .  S
O810        C822   1.274       .  A
O812       C1896   1.273       .  A
O813       C1626   1.278   1_556  A
O814        C824   1.273   1_455  A
O815        C823   1.271       .  A
O817       C1898   1.279       .  A
O818       C1897   1.271       .  A
O819        C826   1.278   1_455  A
O821        C827   1.273       .  A
C822       O1617   1.277   1_455  A
C822       C1065   1.478       .  S
C823        C873   1.458       .  S
C824       O1884   1.272       .  A
C824       C1920   1.476       .  S
C825       O1890   1.271       .  A
C825       C1070   1.472       .  S
C826       O1889   1.277       .  A
C826       C1917   1.492       .  S
C827        C869   1.459       .  S
Zn828      O1904   1.959   1_455  S
Zn828       O833   2.050       .  S
Zn828       O837   2.019       .  S
Zn828       O844   2.012       .  S
Zn829       O832   1.967       .  S
Zn829       O834   2.013       .  S
Zn829       O836   2.068       .  S
Zn829       O840   2.029       .  S
Zn830       O832   1.975       .  S
Zn830       O835   2.018       .  S
Zn830       O838   2.012       .  S
Zn830       O841   2.048       .  S
Zn831      O1904   1.966   1_455  S
Zn831       O839   2.010       .  S
Zn831       O842   1.981       .  S
Zn831       O843   1.993       .  S
O832      Zn1900   1.959       .  S
O832      Zn1903   1.966       .  S
O833       C1917   1.276   1_455  A
O834        C846   1.275       .  A
O835        C847   1.275       .  A
O836        C845   1.278       .  A
O837       C1919   1.274       .  A
O838        C846   1.273       .  A
O839       C1920   1.271   1_455  A
O840        C849   1.276       .  A
O841        C848   1.275       .  A
O842       C1921   1.268   1_455  A
O843        C850   1.269       .  A
O844        C850   1.274       .  A
C845       O1905   1.277       .  A
C845       C1898   1.493       .  S
C846        C893   1.465       .  S
C847       O1909   1.274       .  A
C847       C1061   1.473       .  S
C848       O1911   1.272       .  A
C848       C1896   1.479       .  S
C849       O1914   1.270       .  A
C849       C1057   1.470       .  S
C850        C895   1.461       .  S
Zn851       O856   2.010       .  S
Zn851       O860   2.044       .  S
Zn851       O867   2.003       .  S
Zn852       O855   1.981       .  S
Zn852       O857   2.055       .  S
Zn852       O859   2.065       .  S
Zn852       O863   2.076       .  S
Zn853       O858   2.022       .  S
Zn853       O861   1.975       .  S
Zn853       O864   1.996       .  S
Zn854       O855   1.973       .  S
Zn854       O862   2.023       .  S
Zn854       O865   2.066       .  S
Zn854       O866   2.036       .  S
O857        C869   1.278       .  A
O858        C870   1.270       .  A
O859        C868   1.281       .  A
O860        C870   1.273       .  A
O862        C871   1.275       .  A
O863        C872   1.280       .  A
O865        C872   1.278       .  A
O866        C873   1.275       .  A
C868       C1053   1.481       .  S
C870        C894   1.472       .  S
C871       C1049   1.467       .  S
C872        C891   1.491       .  S
Zn874       O878   1.969       .  S
Zn874       O879   2.063       .  S
Zn874       O883   2.034       .  S
Zn874       O890   2.026       .  S
Zn875       O878   1.975       .  S
Zn875       O880   2.046       .  S
Zn875       O882   2.078       .  S
Zn875       O886   2.037       .  S
Zn876       O878   1.958       .  S
Zn876       O881   1.988       .  S
Zn876       O884   2.006       .  S
Zn876       O887   2.038       .  S
Zn877       O878   1.962       .  S
Zn877       O885   2.028       .  S
Zn877       O888   1.971       .  S
Zn877       O889   1.987       .  S
O879        C891   1.277       .  A
O880        C892   1.278       .  A
O881        C893   1.271       .  A
O882        C891   1.280       .  A
O883        C893   1.276       .  A
O884        C892   1.273       .  A
O885        C894   1.271       .  A
O886        C895   1.277       .  A
O887        C894   1.272       .  A
O888        C895   1.268       .  A
O889        C896   1.268       .  A
O890        C896   1.276       .  A
C892       C1042   1.476       .  S
C896       C1045   1.466       .  S
N897        C902   1.354       .  A
N897        C901   1.356   1_655  A
N897        H929   1.041       .  S
N898        C905   1.353       .  A
N898        C906   1.351       .  A
N899        C904   1.355       .  A
N899        C903   1.348       .  A
N899        H930   1.036       .  S
N900        C907   1.347       .  A
N900        C908   1.350       .  A
C901        C909   1.384   1_455  A
C901        C917   1.415       .  A
C902        C918   1.418       .  A
C902        C910   1.389       .  A
C903        C911   1.386       .  A
C904        C912   1.388       .  A
C905        C913   1.386       .  A
C906        C920   1.410       .  A
C906        C914   1.385       .  A
C907        C915   1.388       .  A
C908        C916   1.387       .  A
C908        C919   1.413       .  A
C909        C910   1.372       .  A
C909        H921   1.082       .  S
C910        H922   1.078       .  S
C911        C912   1.378       .  A
C911        H923   1.083       .  S
C912        H924   1.082       .  S
C913        C914   1.367       .  A
C913        H925   1.082       .  S
C914        H926   1.082       .  S
C915        C916   1.374       .  A
C915        H927   1.083       .  S
C916        H928   1.082       .  S
C917       C1069   1.492       .  S
C918       C1039   1.443   1_565  S
C919       C1066   1.487       .  S
C920       C1038   1.440       .  S
N931        C936   1.355       .  A
N931        C935   1.359   1_455  A
N931        H963   1.042       .  S
N932        C939   1.350       .  A
N932        C940   1.347       .  A
N933        C938   1.353       .  A
N933        C937   1.353       .  A
N933        H964   1.036       .  S
N934        C941   1.349       .  A
N934        C942   1.351       .  A
C935        C943   1.384   1_655  A
C935        C951   1.418       .  A
C936        C952   1.416       .  A
C936        C944   1.386       .  A
C937        C945   1.388       .  A
C938        C953   1.412       .  A
C938        C946   1.387       .  A
C939        C951   1.409       .  A
C939        C947   1.387       .  A
C940        C954   1.407   1_565  A
C940        C948   1.386       .  A
C941        C949   1.388       .  A
C942        C950   1.387       .  A
C942        C953   1.412   1_455  A
C943        C944   1.367       .  A
C943        H955   1.082   1_455  S
C944        H956   1.074       .  S
C945        C946   1.373       .  A
C945        H957   1.083       .  S
C946        H958   1.082       .  S
C947        C948   1.369       .  A
C947        H959   1.082       .  S
C948        H960   1.083       .  S
C949        C950   1.368       .  A
C949        H961   1.082       .  S
C950        H962   1.082       .  S
C951       C2134   1.496       .  S
C952       C1037   1.446       .  S
C953       C2130   1.480       .  S
C954       C1040   1.442       .  S
N965        C970   1.355       .  A
N965        C969   1.350       .  A
N965        H997   1.031       .  S
N966        C973   1.352       .  A
N966        C974   1.352       .  A
N967        C972   1.351       .  A
N967        C971   1.354       .  A
N967        H998   1.040       .  S
N968        C975   1.352       .  A
N968        C976   1.349       .  A
C969        C977   1.385       .  A
C969        C985   1.413   1_565  A
C970        C978   1.388       .  A
C971        C979   1.386       .  A
C971        C988   1.408       .  A
C972        C980   1.389       .  A
C973        C981   1.389       .  A
C974        C982   1.385       .  A
C975        C983   1.386       .  A
C975        C986   1.415       .  A
C976        C984   1.386       .  A
C976        C987   1.409   1_565  A
C977        C978   1.377       .  A
C977        H989   1.079       .  S
C978        H990   1.082       .  S
C979        C980   1.368       .  A
C979        H991   1.082       .  S
C980        H992   1.080       .  S
C981        C982   1.370       .  A
C981        H993   1.082       .  S
C982        H994   1.082       .  S
C983        C984   1.375       .  A
C983        H995   1.082       .  S
C984        H996   1.081       .  S
C985       C1033   1.443       .  S
C986       C1054   1.490       .  S
C987       C1035   1.439       .  S
C988       C1050   1.487       .  S
N999       C1004   1.351       .  A
N999       C1003   1.354       .  A
N999       H1031   1.036       .  S
N1000      C1007   1.351       .  A
N1000      C1008   1.348       .  A
N1001      C1006   1.355       .  A
N1001      C1005   1.354       .  A
N1001      H1032   1.040       .  S
N1002      C1009   1.349       .  A
N1002      C1010   1.351       .  A
C1003      C1011   1.389       .  A
C1003      C1019   1.420       .  A
C1004      C1020   1.409       .  A
C1004      C1012   1.384       .  A
C1005      C1013   1.390       .  A
C1006      C1021   1.414       .  A
C1006      C1014   1.384       .  A
C1007      C1019   1.415       .  A
C1007      C1015   1.387       .  A
C1008      C1022   1.409       .  A
C1008      C1016   1.387       .  A
C1009      C1017   1.386       .  A
C1010      C1018   1.386       .  A
C1010      C1021   1.405       .  A
C1011      C1012   1.375       .  A
C1011      H1023   1.081       .  S
C1012      H1024   1.081       .  S
C1013      C1014   1.373       .  A
C1013      H1025   1.082       .  S
C1014      H1026   1.082       .  S
C1015      C1016   1.376       .  A
C1015      H1027   1.082       .  S
C1016      H1028   1.083       .  S
C1017      C1018   1.363       .  A
C1017      H1029   1.079       .  S
C1018      H1030   1.082       .  S
C1019      C1041   1.488       .  S
C1020      C1036   1.439       .  S
C1021      C1046   1.486       .  S
C1022      C1034   1.444       .  S
C1037      C1038   1.202       .  T
C1039      C1040   1.201       .  T
C1041      C1042   1.342       .  D
C1041      H1043   1.086       .  S
C1042      H1044   1.088       .  S
C1045      C1046   1.337       .  D
C1045      H1047   1.087       .  S
C1046      H1048   1.087       .  S
C1049      C1050   1.340       .  D
C1050      H1052   1.087       .  S
C1053      C1054   1.342       .  D
C1054      H1056   1.086       .  S
C1057      C1058   1.339       .  D
C1057      H2131   1.088       .  S
C1058      C2025   1.482       .  S
C1058      H1060   1.086       .  S
H1059      C2129   1.088       .  S
C1061      C1062   1.346       .  D
C1061      H2135   1.086       .  S
C1062      C2023   1.496       .  S
C1062      H1064   1.087       .  S
H1063      C2133   1.086       .  S
C1065      C1066   1.343   1_455  D
C1065      H1067   1.087       .  S
C1066      H1872   1.086       .  S
H1068      C1870   1.086       .  S
C1069      C1070   1.343   1_455  D
C1069      H1071   1.087       .  S
C1070      H1876   1.086       .  S
H1072      C1874   1.086       .  S
Zn1073     O1077   1.962       .  S
Zn1073     O1078   2.011       .  S
Zn1073     O1082   2.022       .  S
Zn1073     O1089   2.014       .  S
Zn1074     O1079   2.044       .  S
Zn1074     O1081   2.042       .  S
Zn1074     O1085   2.062       .  S
Zn1075     O1080   2.048       .  S
Zn1075     O1083   2.005       .  S
Zn1075     O1086   2.016       .  S
Zn1076     O1345   1.969       .  S
Zn1076     O1084   2.017       .  S
Zn1076     O1087   2.056       .  S
Zn1076     O1088   2.013       .  S
O1077     Zn1344   1.967   1_554  S
O1078      C1090   1.273       .  A
O1079      C1359   1.277       .  A
O1082      C1092   1.272       .  A
O1083      C1091   1.272       .  A
O1084      C1361   1.275       .  A
O1087      C1094   1.277       .  A
O1088      C1363   1.272       .  A
O1089      C1095   1.271       .  A
C1090      C1333   1.477       .  S
C1091      O1347   1.276   1_554  A
C1091      C1141   1.459       .  S
C1093      O1352   1.276   1_554  A
C1093      C1338   1.471       .  S
C1095      O1356   1.274   1_554  A
C1095      C1137   1.460       .  S
Zn1096     O1101   2.062       .  S
Zn1096     O1105   2.029       .  S
Zn1096     O1112   2.028       .  S
Zn1097     O1100   1.971   1_655  S
Zn1097     O1102   2.032       .  S
Zn1097     O1104   2.065       .  S
Zn1097     O1108   2.030       .  S
Zn1098     O1100   1.972   1_655  S
Zn1098     O1103   2.025       .  S
Zn1098     O1106   2.014       .  S
Zn1098     O1109   2.054       .  S
Zn1099     O1107   2.020       .  S
Zn1099     O1110   2.000       .  S
Zn1099     O1111   2.004       .  S
O1102      C1114   1.277       .  A
O1103      C1115   1.276   1_655  A
O1104      C1113   1.278   1_655  A
O1106      C1114   1.274       .  A
O1108      C1117   1.277   1_655  A
O1109      C1116   1.276       .  A
O1111      C1118   1.271       .  A
O1112      C1118   1.277       .  A
C1114      C1161   1.471       .  S
C1115      C1329   1.471       .  S
C1117      C1325   1.469       .  S
C1118      C1163   1.468       .  S
Zn1119     O1391   1.962       .  S
Zn1119     O1124   2.008       .  S
Zn1119     O1128   2.038       .  S
Zn1119     O1135   2.000       .  S
Zn1120     O1123   1.979       .  S
Zn1120     O1125   2.052       .  S
Zn1120     O1127   2.049       .  S
Zn1120     O1131   2.070       .  S
Zn1121     O1391   1.964       .  S
Zn1121     O1126   2.028       .  S
Zn1121     O1129   1.980       .  S
Zn1121     O1132   1.995       .  S
Zn1122     O1123   1.973       .  S
Zn1122     O1130   2.025       .  S
Zn1122     O1133   2.067       .  S
Zn1122     O1134   2.032       .  S
O1123     Zn1387   1.965   1_554  S
O1123     Zn1389   1.963   1_554  S
O1124      C1404   1.273       .  A
O1125      C1137   1.277       .  A
O1126      C1138   1.271       .  A
O1127      C1136   1.279   1_554  A
O1128      C1138   1.272       .  A
O1129      C1405   1.268       .  A
O1130      C1139   1.276   1_554  A
O1131      C1140   1.279       .  A
O1132      C1407   1.269       .  A
O1133      C1140   1.278       .  A
O1134      C1141   1.274       .  A
O1135      C1409   1.270       .  A
C1136      O1392   1.273       .  A
C1136      C1321   1.477       .  S
C1137      O1397   1.268   1_554  A
C1138      C1162   1.472       .  S
C1139      O1400   1.271       .  A
C1139      C1317   1.470       .  S
C1140      C1159   1.490       .  S
C1141      O1403   1.271   1_554  A
Zn1142     O1146   1.971       .  S
Zn1142     O1147   2.068       .  S
Zn1142     O1151   2.033       .  S
Zn1142     O1158   2.033       .  S
Zn1143     O1146   1.980       .  S
Zn1143     O1148   2.050       .  S
Zn1143     O1150   2.072       .  S
Zn1143     O1154   2.052       .  S
Zn1144     O1146   1.966       .  S
Zn1144     O1149   2.014       .  S
Zn1144     O1152   2.013       .  S
Zn1144     O1155   2.043       .  S
Zn1145     O1146   1.965       .  S
Zn1145     O1153   2.022       .  S
Zn1145     O1156   1.979       .  S
Zn1145     O1157   1.987       .  S
O1147      C1159   1.278       .  A
O1148      C1160   1.279       .  A
O1149      C1161   1.273       .  A
O1150      C1159   1.279       .  A
O1151      C1161   1.276       .  A
O1152      C1160   1.274       .  A
O1153      C1162   1.270       .  A
O1154      C1163   1.278       .  A
O1155      C1162   1.273       .  A
O1156      C1163   1.269       .  A
O1157      C1164   1.268       .  A
O1158      C1164   1.277       .  A
C1160      C1310   1.479       .  S
C1164      C1313   1.469       .  S
N1165      C1170   1.353       .  A
N1165      C1169   1.355       .  A
N1165      H1197   1.040       .  S
N1166      C1173   1.353       .  A
N1166      C1174   1.350       .  A
N1167      C1172   1.356       .  A
N1167      C1171   1.350       .  A
N1167      H1198   1.027       .  S
N1168      C1175   1.347       .  A
N1168      C1176   1.350       .  A
C1169      C1177   1.385       .  A
C1169      C1185   1.415       .  A
C1170      C1186   1.416       .  A
C1170      C1178   1.389       .  A
C1171      C1179   1.385       .  A
C1171      C1724   1.408   1_545  A
C1172      C1455   1.417       .  A
C1172      C1180   1.388       .  A
C1173      C1453   1.409       .  A
C1173      C1181   1.386       .  A
C1174      C1188   1.409       .  A
C1174      C1182   1.386       .  A
C1175      C1183   1.387       .  A
C1175      C1722   1.407   1_545  A
C1176      C1184   1.387       .  A
C1176      C1187   1.414   1_554  A
C1177      C1178   1.372       .  A
C1177      H1189   1.082       .  S
C1178      H1190   1.081       .  S
C1179      C1180   1.378       .  A
C1179      H1191   1.083       .  S
C1180      H1192   1.082       .  S
C1181      C1182   1.366       .  A
C1181      H1193   1.082       .  S
C1182      H1194   1.082       .  S
C1183      C1184   1.374       .  A
C1183      H1195   1.083       .  S
C1184      H1196   1.082       .  S
C1185      C1337   1.492       .  S
C1185      C1441   1.410   1_554  A
C1186      C1711   1.408       .  A
C1186      C1307   1.441       .  S
C1187      C1334   1.485       .  S
C1187      C1440   1.419       .  A
C1188      C1707   1.408       .  A
C1188      C1306   1.439       .  S
N1199      C1204   1.354       .  A
N1199      C1203   1.359       .  A
N1199      H1231   1.041       .  S
N1200      C1207   1.350       .  A
N1200      C1208   1.347       .  A
N1201      C1206   1.354       .  A
N1201      C1205   1.353       .  A
N1201      H1232   1.037       .  S
N1202      C1209   1.349       .  A
N1202      C1210   1.352       .  A
C1203      C1211   1.384       .  A
C1203      C1219   1.418       .  A
C1204      C1220   1.416       .  A
C1204      C1212   1.386       .  A
C1205      C1213   1.389       .  A
C1205      C1758   1.413       .  A
C1206      C1221   1.411       .  A
C1206      C1214   1.385       .  A
C1207      C1219   1.411       .  A
C1207      C1215   1.387       .  A
C1208      C1222   1.408       .  A
C1208      C1216   1.387       .  A
C1209      C1217   1.389       .  A
C1209      C1756   1.409   1_545  A
C1210      C1218   1.386       .  A
C1210      C1221   1.411       .  A
C1211      C1212   1.369       .  A
C1211      H1223   1.082       .  S
C1212      H1224   1.076       .  S
C1213      C1214   1.371       .  A
C1213      H1225   1.082       .  S
C1214      H1226   1.082       .  S
C1215      C1216   1.371       .  A
C1215      H1227   1.082       .  S
C1216      H1228   1.083       .  S
C1217      C1218   1.368       .  A
C1217      H1229   1.082       .  S
C1218      H1230   1.082       .  S
C1220      C1745   1.408       .  A
C1220      C1305   1.445       .  S
C1222      C1741   1.412       .  A
C1222      C1308   1.441       .  S
N1233      C1238   1.355       .  A
N1233      C1237   1.350       .  A
N1233      H1265   1.035       .  S
N1234      C1241   1.351       .  A
N1234      C1242   1.352       .  A
N1235      C1240   1.352       .  A
N1235      C1239   1.354       .  A
N1235      H1266   1.039       .  S
N1236      C1243   1.351       .  A
N1236      C1244   1.348       .  A
C1237      C1245   1.385       .  A
C1237      C1253   1.411       .  A
C1238      C1522   1.419       .  A
C1238      C1246   1.388       .  A
C1239      C1247   1.387       .  A
C1239      C1256   1.412   1_554  A
C1240      C1791   1.412   1_545  A
C1240      C1248   1.389       .  A
C1241      C1789   1.412       .  A
C1241      C1249   1.388       .  A
C1242      C1524   1.411       .  A
C1242      C1250   1.385       .  A
C1243      C1251   1.387       .  A
C1243      C1254   1.416       .  A
C1244      C1252   1.386       .  A
C1244      C1255   1.408       .  A
C1245      C1246   1.378       .  A
C1245      H1257   1.080       .  S
C1246      H1258   1.082       .  S
C1247      C1248   1.368       .  A
C1247      H1259   1.082       .  S
C1248      H1260   1.081       .  S
C1249      C1250   1.370       .  A
C1249      H1261   1.082       .  S
C1250      H1262   1.082       .  S
C1251      C1252   1.374       .  A
C1251      H1263   1.082       .  S
C1252      H1264   1.082       .  S
C1253      C1777   1.412       .  A
C1253      C1301   1.442       .  S
C1254      C1322   1.488       .  S
C1254      C1506   1.418   1_554  A
C1255      C1776   1.411       .  A
C1255      C1303   1.439       .  S
C1256      C1318   1.491       .  S
C1256      C1510   1.413       .  A
N1267      C1272   1.351       .  A
N1267      C1271   1.353       .  A
N1267      H1299   1.038       .  S
N1268      C1275   1.351       .  A
N1268      C1276   1.349       .  A
N1269      C1274   1.354       .  A
N1269      C1273   1.352       .  A
N1269      H1300   1.041       .  S
N1270      C1277   1.349       .  A
N1270      C1278   1.351       .  A
C1271      C1279   1.388       .  A
C1271      C1287   1.417       .  A
C1272      C1288   1.409   1_545  A
C1272      C1280   1.386       .  A
C1273      C1281   1.391       .  A
C1273      C1826   1.415       .  A
C1274      C1289   1.412       .  A
C1274      C1282   1.384       .  A
C1275      C1287   1.414       .  A
C1275      C1283   1.387       .  A
C1276      C1290   1.409   1_545  A
C1276      C1284   1.387       .  A
C1277      C1285   1.387       .  A
C1277      C1824   1.407       .  A
C1278      C1286   1.385       .  A
C1278      C1289   1.404       .  A
C1279      C1280   1.377       .  A
C1279      H1291   1.082       .  S
C1280      H1292   1.082       .  S
C1281      C1282   1.374       .  A
C1281      H1293   1.082       .  S
C1282      H1294   1.082       .  S
C1283      C1284   1.377       .  A
C1283      H1295   1.082       .  S
C1284      H1296   1.083       .  S
C1285      C1286   1.365       .  A
C1285      H1297   1.078       .  S
C1286      H1298   1.082       .  S
C1287      C1309   1.488       .  S
C1288      C1813   1.406       .  A
C1288      C1304   1.438       .  S
C1289      C1314   1.488       .  S
C1290      C1809   1.415       .  A
C1290      C1302   1.443       .  S
C1301      C1838   1.202       .  T
C1302      C1837   1.202   1_565  T
C1303      C1840   1.200       .  T
C1304      C1839   1.199       .  T
C1305      C1306   1.201       .  T
C1307      C1308   1.200       .  T
C1309      C1310   1.342       .  D
C1309      H1311   1.086       .  S
C1310      H1312   1.088       .  S
C1313      C1314   1.339       .  D
C1313      H1315   1.087       .  S
C1314      H1316   1.087       .  S
C1317      C1318   1.342       .  D
C1317      H1587   1.086       .  S
C1318      H1320   1.087   1_556  S
H1319      C1585   1.086       .  S
C1321      C1322   1.342   1_556  D
C1321      H1591   1.088       .  S
C1322      H1324   1.086       .  S
H1323      C1589   1.088       .  S
C1325      C1326   1.338   1_455  D
C1326      H1328   1.086       .  S
C1329      C1330   1.343   1_455  D
C1330      H1332   1.087       .  S
C1333      C1334   1.341   1_554  D
C1333      H1335   1.087       .  S
C1337      C1338   1.343       .  D
C1337      H1339   1.087   1_554  S
Zn1341     O1345   1.963       .  S
Zn1341     O1346   2.022       .  S
Zn1341     O1350   2.029       .  S
Zn1341     O1357   2.020       .  S
Zn1342     O1347   2.033       .  S
Zn1342     O1349   2.042       .  S
Zn1342     O1353   2.062       .  S
Zn1343     O1348   2.031       .  S
Zn1343     O1351   2.004       .  S
Zn1343     O1354   2.009       .  S
Zn1344     O1352   2.023       .  S
Zn1344     O1355   2.057       .  S
Zn1344     O1356   2.025       .  S
O1346      C1358   1.274       .  A
O1350      C1360   1.273       .  A
O1351      C1359   1.271       .  A
O1355      C1362   1.278       .  A
O1357      C1363   1.273       .  A
C1358      C1601   1.480       .  S
C1359      C1409   1.462       .  S
C1361      C1606   1.470       .  S
C1363      C1405   1.458       .  S
Zn1364     O1369   2.055       .  S
Zn1364     O1373   2.023       .  S
Zn1364     O1380   2.016       .  S
Zn1365     O1368   1.966       .  S
Zn1365     O1370   2.028       .  S
Zn1365     O1372   2.068       .  S
Zn1365     O1376   2.032       .  S
Zn1366     O1368   1.973       .  S
Zn1366     O1371   2.021       .  S
Zn1366     O1374   2.014       .  S
Zn1366     O1377   2.046       .  S
Zn1367     O1375   2.019       .  S
Zn1367     O1378   1.993       .  S
Zn1367     O1379   2.000       .  S
O1370      C1382   1.277       .  A
O1371      C1383   1.275   1_655  A
O1372      C1381   1.279       .  A
O1374      C1382   1.273       .  A
O1376      C1385   1.277       .  A
O1377      C1384   1.275       .  A
O1379      C1386   1.270       .  A
O1380      C1386   1.275       .  A
C1382      C1429   1.469       .  S
C1383      C1597   1.472       .  S
C1385      C1593   1.468       .  S
C1386      C1431   1.464       .  S
Zn1387     O1392   2.009       .  S
Zn1387     O1396   2.044       .  S
Zn1387     O1403   2.005       .  S
Zn1388     O1391   1.981       .  S
Zn1388     O1393   2.055       .  S
Zn1388     O1395   2.062       .  S
Zn1388     O1399   2.077       .  S
Zn1389     O1394   2.023       .  S
Zn1389     O1397   1.984       .  S
Zn1389     O1400   2.005       .  S
Zn1390     O1391   1.971       .  S
Zn1390     O1398   2.020       .  S
Zn1390     O1401   2.067       .  S
Zn1390     O1402   2.042       .  S
O1393      C1405   1.278       .  A
O1394      C1406   1.270       .  A
O1395      C1404   1.281       .  A
O1396      C1406   1.273       .  A
O1398      C1407   1.276       .  A
O1399      C1408   1.280       .  A
O1401      C1408   1.278       .  A
O1402      C1409   1.276       .  A
C1404      C1589   1.480       .  S
C1406      C1430   1.471       .  S
C1407      C1585   1.467       .  S
C1408      C1427   1.492       .  S
Zn1410     O1414   1.970       .  S
Zn1410     O1415   2.061       .  S
Zn1410     O1419   2.037       .  S
Zn1410     O1426   2.026       .  S
Zn1411     O1414   1.979       .  S
Zn1411     O1416   2.055       .  S
Zn1411     O1418   2.084       .  S
Zn1411     O1422   2.046       .  S
Zn1412     O1414   1.961       .  S
Zn1412     O1417   1.999       .  S
Zn1412     O1420   2.012       .  S
Zn1412     O1423   2.037       .  S
Zn1413     O1414   1.964       .  S
Zn1413     O1421   2.025       .  S
Zn1413     O1424   1.974       .  S
Zn1413     O1425   1.985       .  S
O1415      C1427   1.277       .  A
O1416      C1428   1.279       .  A
O1417      C1429   1.271       .  A
O1418      C1427   1.281       .  A
O1419      C1429   1.277       .  A
O1420      C1428   1.273       .  A
O1421      C1430   1.271       .  A
O1422      C1431   1.278       .  A
O1423      C1430   1.272       .  A
O1424      C1431   1.268       .  A
O1425      C1432   1.268       .  A
O1426      C1432   1.276       .  A
C1428      C1578   1.480       .  S
C1432      C1581   1.466       .  S
N1433      C1438   1.353       .  A
N1433      C1437   1.355       .  A
N1433      H1465   1.034       .  S
N1434      C1441   1.353       .  A
N1434      C1442   1.351       .  A
N1435      C1440   1.354       .  A
N1435      C1439   1.348       .  A
N1435      H1466   1.034       .  S
N1436      C1443   1.348       .  A
N1436      C1444   1.351       .  A
C1437      C1445   1.384       .  A
C1437      C1453   1.413       .  A
C1438      C1454   1.415       .  A
C1438      C1446   1.389       .  A
C1439      C1447   1.387       .  A
C1439      C1992   1.411       .  A
C1440      C1448   1.388       .  A
C1441      C1449   1.386       .  A
C1442      C1456   1.411       .  A
C1442      C1450   1.385       .  A
C1443      C1451   1.387       .  A
C1443      C1990   1.408       .  A
C1444      C1452   1.387       .  A
C1444      C1455   1.414       .  A
C1445      C1446   1.373       .  A
C1445      H1457   1.082       .  S
C1446      H1458   1.079       .  S
C1447      C1448   1.376       .  A
C1447      H1459   1.083       .  S
C1448      H1460   1.082       .  S
C1449      C1450   1.367       .  A
C1449      H1461   1.082       .  S
C1450      H1462   1.082       .  S
C1451      C1452   1.375       .  A
C1451      H1463   1.083       .  S
C1452      H1464   1.082       .  S
C1453      C1605   1.490       .  S
C1454      C1979   1.407       .  A
C1454      C1575   1.441       .  S
C1455      C1602   1.489       .  S
C1456      C1975   1.408       .  A
C1456      C1574   1.439       .  S
N1467      C1472   1.353       .  A
N1467      C1471   1.359       .  A
N1467      H1499   1.041       .  S
N1468      C1475   1.350       .  A
N1468      C1476   1.347       .  A
N1469      C1474   1.353       .  A
N1469      C1473   1.353       .  A
N1469      H1500   1.037       .  S
N1470      C1477   1.350       .  A
N1470      C1478   1.352       .  A
C1471      C1479   1.384       .  A
C1471      C1487   1.417       .  A
C1472      C1488   1.414       .  A
C1472      C1480   1.386       .  A
C1473      C1481   1.388       .  A
C1473      C2026   1.412       .  A
C1474      C1489   1.413       .  A
C1474      C1482   1.387       .  A
C1475      C1487   1.409       .  A
C1475      C1483   1.387       .  A
C1476      C1490   1.407       .  A
C1476      C1484   1.387       .  A
C1477      C1485   1.388       .  A
C1477      C2024   1.409       .  A
C1478      C1486   1.386       .  A
C1478      C1489   1.413       .  A
C1479      C1480   1.367       .  A
C1479      H1491   1.082       .  S
C1480      H1492   1.075       .  S
C1481      C1482   1.372       .  A
C1481      H1493   1.083       .  S
C1482      H1494   1.082       .  S
C1483      C1484   1.369       .  A
C1483      H1495   1.082       .  S
C1484      H1496   1.083       .  S
C1485      C1486   1.368       .  A
C1485      H1497   1.081       .  S
C1486      H1498   1.082       .  S
C1488      C2013   1.409       .  A
C1488      C1573   1.445       .  S
C1490      C2009   1.412       .  A
C1490      C1576   1.441       .  S
N1501      C1506   1.354       .  A
N1501      C1505   1.349       .  A
N1501      H1533   1.035       .  S
N1502      C1509   1.352       .  A
N1502      C1510   1.353       .  A
N1503      C1508   1.352       .  A
N1503      C1507   1.354       .  A
N1503      H1534   1.039       .  S
N1504      C1511   1.351       .  A
N1504      C1512   1.348       .  A
C1505      C1513   1.385       .  A
C1505      C1521   1.410       .  A
C1506      C1514   1.388       .  A
C1507      C1515   1.386       .  A
C1507      C1524   1.409       .  A
C1508      C2059   1.410       .  A
C1508      C1516   1.389       .  A
C1509      C2057   1.414       .  A
C1509      C1517   1.388       .  A
C1510      C1518   1.385       .  A
C1511      C1519   1.387       .  A
C1511      C1522   1.416       .  A
C1512      C1520   1.386       .  A
C1512      C1523   1.408       .  A
C1513      C1514   1.378       .  A
C1513      H1525   1.080       .  S
C1514      H1526   1.082       .  S
C1515      C1516   1.368       .  A
C1515      H1527   1.082       .  S
C1516      H1528   1.081       .  S
C1517      C1518   1.370       .  A
C1517      H1529   1.082       .  S
C1518      H1530   1.082       .  S
C1519      C1520   1.375       .  A
C1519      H1531   1.082       .  S
C1520      H1532   1.082       .  S
C1521      C2045   1.414       .  A
C1521      C1569   1.443       .  S
C1522      C1590   1.490       .  S
C1523      C2044   1.410       .  A
C1523      C1571   1.439       .  S
C1524      C1586   1.486       .  S
N1535      C1540   1.351       .  A
N1535      C1539   1.354       .  A
N1535      H1567   1.038       .  S
N1536      C1543   1.352       .  A
N1536      C1544   1.349       .  A
N1537      C1542   1.354       .  A
N1537      C1541   1.353       .  A
N1537      H1568   1.040       .  S
N1538      C1545   1.349       .  A
N1538      C1546   1.350       .  A
C1539      C1547   1.389       .  A
C1539      C1555   1.419       .  A
C1540      C1556   1.409   1_545  A
C1540      C1548   1.385       .  A
C1541      C1549   1.391       .  A
C1541      C2094   1.416       .  A
C1542      C1557   1.413       .  A
C1542      C1550   1.385       .  A
C1543      C1555   1.416       .  A
C1543      C1551   1.387       .  A
C1544      C1558   1.410   1_545  A
C1544      C1552   1.387       .  A
C1545      C1553   1.387       .  A
C1545      C2092   1.406       .  A
C1546      C1554   1.385       .  A
C1546      C1557   1.404       .  A
C1547      C1548   1.376       .  A
C1547      H1559   1.081       .  S
C1548      H1560   1.081       .  S
C1549      C1550   1.374       .  A
C1549      H1561   1.082       .  S
C1550      H1562   1.082       .  S
C1551      C1552   1.377       .  A
C1551      H1563   1.082       .  S
C1552      H1564   1.083       .  S
C1553      C1554   1.365       .  A
C1553      H1565   1.079       .  S
C1554      H1566   1.082       .  S
C1555      C1577   1.490       .  S
C1556      C2081   1.406       .  A
C1556      C1572   1.438   1_565  S
C1557      C1582   1.485       .  S
C1558      C2077   1.416       .  A
C1558      C1570   1.444       .  S
C1569      C2106   1.203       .  T
C1570      C2105   1.202       .  T
C1571      C2108   1.200       .  T
C1572      C2107   1.200       .  T
C1573      C1574   1.201       .  T
C1575      C1576   1.200       .  T
C1577      C1578   1.343       .  D
C1577      H1579   1.086       .  S
C1578      H1580   1.087       .  S
C1581      C1582   1.338       .  D
C1581      H1583   1.087       .  S
C1582      H1584   1.087       .  S
C1585      C1586   1.340       .  D
C1586      H1588   1.087       .  S
C1589      C1590   1.341       .  D
C1590      H1592   1.086       .  S
C1593      C1594   1.337       .  D
C1594      H1596   1.086       .  S
C1597      C1598   1.345   1_455  D
C1598      H1600   1.086       .  S
C1601      C1602   1.343       .  D
C1601      H1603   1.087       .  S
C1605      C1606   1.343       .  D
C1605      H1607   1.087       .  S
Zn1609     O1613   1.962       .  S
Zn1609     O1614   2.014       .  S
Zn1609     O1618   2.020       .  S
Zn1609     O1625   2.015       .  S
Zn1610     O1615   2.044       .  S
Zn1610     O1617   2.038       .  S
Zn1610     O1621   2.063       .  S
Zn1611     O1616   2.047       .  S
Zn1611     O1619   2.004       .  S
Zn1611     O1622   2.016       .  S
Zn1612     O1881   1.969       .  S
Zn1612     O1620   2.017       .  S
Zn1612     O1623   2.056       .  S
Zn1612     O1624   2.014       .  S
O1613     Zn1880   1.967   1_554  S
O1614      C1626   1.273       .  A
O1615      C1895   1.277       .  A
O1618      C1628   1.272       .  A
O1619      C1627   1.272       .  A
O1620      C1897   1.275       .  A
O1623      C1630   1.277       .  A
O1624      C1899   1.272       .  A
O1625      C1631   1.272       .  A
C1626      C1869   1.478       .  S
C1627      O1883   1.276   1_554  A
C1627      C1677   1.459       .  S
C1629      O1888   1.275   1_554  A
C1629      C1874   1.471       .  S
C1631      O1892   1.273   1_554  A
C1631      C1673   1.459       .  S
Zn1632     O1637   2.061       .  S
Zn1632     O1641   2.027       .  S
Zn1632     O1648   2.025       .  S
Zn1633     O1636   1.971   1_655  S
Zn1633     O1638   2.032       .  S
Zn1633     O1640   2.069       .  S
Zn1633     O1644   2.031       .  S
Zn1634     O1636   1.973   1_655  S
Zn1634     O1639   2.025       .  S
Zn1634     O1642   2.013       .  S
Zn1634     O1645   2.056       .  S
Zn1635     O1643   2.020       .  S
Zn1635     O1646   2.000       .  S
Zn1635     O1647   2.006       .  S
O1638      C1650   1.277       .  A
O1639      C1651   1.276   1_655  A
O1640      C1649   1.278   1_655  A
O1642      C1650   1.273       .  A
O1644      C1653   1.277   1_655  A
O1645      C1652   1.276       .  A
O1647      C1654   1.271       .  A
O1648      C1654   1.277       .  A
C1650      C1697   1.471       .  S
C1651      C1865   1.470       .  S
C1653      C1861   1.468       .  S
C1654      C1699   1.467       .  S
Zn1655     O1927   1.961       .  S
Zn1655     O1660   2.010       .  S
Zn1655     O1664   2.039       .  S
Zn1655     O1671   2.001       .  S
Zn1656     O1659   1.979       .  S
Zn1656     O1661   2.053       .  S
Zn1656     O1663   2.050       .  S
Zn1656     O1667   2.071       .  S
Zn1657     O1927   1.964       .  S
Zn1657     O1662   2.026       .  S
Zn1657     O1665   1.977       .  S
Zn1657     O1668   1.993       .  S
Zn1658     O1659   1.972       .  S
Zn1658     O1666   2.024       .  S
Zn1658     O1669   2.067       .  S
Zn1658     O1670   2.033       .  S
O1659     Zn1923   1.964   1_554  S
O1659     Zn1925   1.963   1_554  S
O1660      C1940   1.274       .  A
O1661      C1673   1.277       .  A
O1662      C1674   1.271       .  A
O1663      C1672   1.279   1_554  A
O1664      C1674   1.272       .  A
O1665      C1941   1.268       .  A
O1666      C1675   1.276   1_554  A
O1667      C1676   1.279       .  A
O1668      C1943   1.269       .  A
O1669      C1676   1.278       .  A
O1670      C1677   1.274       .  A
O1671      C1945   1.270       .  A
C1672      O1928   1.273       .  A
C1672      C1857   1.478       .  S
C1673      O1933   1.268   1_554  A
C1674      C1698   1.472       .  S
C1675      O1936   1.270       .  A
C1675      C1853   1.469       .  S
C1676      C1695   1.490       .  S
C1677      O1939   1.271   1_554  A
Zn1678     O1682   1.971       .  S
Zn1678     O1683   2.068       .  S
Zn1678     O1687   2.035       .  S
Zn1678     O1694   2.033       .  S
Zn1679     O1682   1.980       .  S
Zn1679     O1684   2.052       .  S
Zn1679     O1686   2.071       .  S
Zn1679     O1690   2.053       .  S
Zn1680     O1682   1.965       .  S
Zn1680     O1685   2.011       .  S
Zn1680     O1688   2.011       .  S
Zn1680     O1691   2.042       .  S
Zn1681     O1682   1.964       .  S
Zn1681     O1689   2.023       .  S
Zn1681     O1692   1.978       .  S
Zn1681     O1693   1.986       .  S
O1683      C1695   1.278       .  A
O1684      C1696   1.279       .  A
O1685      C1697   1.273       .  A
O1686      C1695   1.279       .  A
O1687      C1697   1.277       .  A
O1688      C1696   1.274       .  A
O1689      C1698   1.270       .  A
O1690      C1699   1.279       .  A
O1691      C1698   1.273       .  A
O1692      C1699   1.269       .  A
O1693      C1700   1.268       .  A
O1694      C1700   1.277       .  A
C1696      C1846   1.479       .  S
C1700      C1849   1.468       .  S
N1701      C1706   1.354       .  A
N1701      C1705   1.355       .  A
N1701      H1733   1.041       .  S
N1702      C1709   1.353       .  A
N1702      C1710   1.350       .  A
N1703      C1708   1.356       .  A
N1703      C1707   1.350       .  A
N1703      H1734   1.028       .  S
N1704      C1711   1.347       .  A
N1704      C1712   1.351       .  A
C1705      C1713   1.385       .  A
C1705      C1721   1.414   1_554  A
C1706      C1722   1.416       .  A
C1706      C1714   1.389       .  A
C1707      C1715   1.385       .  A
C1708      C1991   1.417       .  A
C1708      C1716   1.388       .  A
C1709      C1989   1.409       .  A
C1709      C1717   1.386       .  A
C1710      C1724   1.409       .  A
C1710      C1718   1.386       .  A
C1711      C1719   1.387       .  A
C1712      C1720   1.387       .  A
C1712      C1723   1.414   1_554  A
C1713      C1714   1.372       .  A
C1713      H1725   1.082       .  S
C1714      H1726   1.081       .  S
C1715      C1716   1.378       .  A
C1715      H1727   1.083       .  S
C1716      H1728   1.082       .  S
C1717      C1718   1.366       .  A
C1717      H1729   1.082       .  S
C1718      H1730   1.083       .  S
C1719      C1720   1.374       .  A
C1719      H1731   1.083       .  S
C1720      H1732   1.082       .  S
C1721      C1873   1.493       .  S
C1721      C1977   1.411       .  A
C1722      C1843   1.441   1_565  S
C1723      C1870   1.486       .  S
C1723      C1976   1.417       .  A
C1724      C1842   1.439       .  S
N1735      C1740   1.354       .  A
N1735      C1739   1.359       .  A
N1735      H1767   1.041       .  S
N1736      C1743   1.350       .  A
N1736      C1744   1.347       .  A
N1737      C1742   1.354       .  A
N1737      C1741   1.352       .  A
N1737      H1768   1.037       .  S
N1738      C1745   1.349       .  A
N1738      C1746   1.351       .  A
C1739      C1747   1.384       .  A
C1739      C1755   1.418       .  A
C1740      C1756   1.415       .  A
C1740      C1748   1.386       .  A
C1741      C1749   1.388       .  A
C1742      C1757   1.412       .  A
C1742      C1750   1.386       .  A
C1743      C1755   1.410       .  A
C1743      C1751   1.387       .  A
C1744      C1758   1.408   1_565  A
C1744      C1752   1.387       .  A
C1745      C1753   1.389       .  A
C1746      C1754   1.386       .  A
C1746      C1757   1.411       .  A
C1747      C1748   1.368       .  A
C1747      H1759   1.082       .  S
C1748      H1760   1.076       .  S
C1749      C1750   1.371       .  A
C1749      H1761   1.082       .  S
C1750      H1762   1.082       .  S
C1751      C1752   1.370       .  A
C1751      H1763   1.082       .  S
C1752      H1764   1.083       .  S
C1753      C1754   1.368       .  A
C1753      H1765   1.082       .  S
C1754      H1766   1.082       .  S
C1756      C1841   1.445       .  S
C1758      C1844   1.441       .  S
N1769      C1774   1.355       .  A
N1769      C1773   1.350       .  A
N1769      H1801   1.036       .  S
N1770      C1777   1.351       .  A
N1770      C1778   1.352       .  A
N1771      C1776   1.352       .  A
N1771      C1775   1.354       .  A
N1771      H1802   1.039       .  S
N1772      C1779   1.351       .  A
N1772      C1780   1.348       .  A
C1773      C1781   1.385       .  A
C1773      C1789   1.411   1_565  A
C1774      C2058   1.418       .  A
C1774      C1782   1.388       .  A
C1775      C1783   1.387       .  A
C1775      C1792   1.411   1_554  A
C1776      C1784   1.388       .  A
C1777      C1785   1.388       .  A
C1778      C2060   1.411       .  A
C1778      C1786   1.385       .  A
C1779      C1787   1.387       .  A
C1779      C1790   1.416       .  A
C1780      C1788   1.386       .  A
C1780      C1791   1.408       .  A
C1781      C1782   1.378       .  A
C1781      H1793   1.080       .  S
C1782      H1794   1.082       .  S
C1783      C1784   1.368       .  A
C1783      H1795   1.082       .  S
C1784      H1796   1.081       .  S
C1785      C1786   1.370       .  A
C1785      H1797   1.082       .  S
C1786      H1798   1.082       .  S
C1787      C1788   1.374       .  A
C1787      H1799   1.082       .  S
C1788      H1800   1.082       .  S
C1789      C1837   1.442       .  S
C1790      C1858   1.488       .  S
C1790      C2042   1.418   1_554  A
C1791      C1839   1.439       .  S
C1792      C1854   1.489       .  S
C1792      C2046   1.413       .  A
N1803      C1808   1.351       .  A
N1803      C1807   1.353       .  A
N1803      H1835   1.038       .  S
N1804      C1811   1.351       .  A
N1804      C1812   1.349       .  A
N1805      C1810   1.354       .  A
N1805      C1809   1.352       .  A
N1805      H1836   1.041       .  S
N1806      C1813   1.349       .  A
N1806      C1814   1.351       .  A
C1807      C1815   1.388       .  A
C1807      C1823   1.416       .  A
C1808      C1824   1.409       .  A
C1808      C1816   1.386       .  A
C1809      C1817   1.391       .  A
C1810      C1825   1.412       .  A
C1810      C1818   1.384       .  A
C1811      C1823   1.414       .  A
C1811      C1819   1.387       .  A
C1812      C1826   1.409       .  A
C1812      C1820   1.387       .  A
C1813      C1821   1.387       .  A
C1814      C1822   1.385       .  A
C1814      C1825   1.404       .  A
C1815      C1816   1.377       .  A
C1815      H1827   1.082       .  S
C1816      H1828   1.082       .  S
C1817      C1818   1.373       .  A
C1817      H1829   1.082       .  S
C1818      H1830   1.082       .  S
C1819      C1820   1.377       .  A
C1819      H1831   1.082       .  S
C1820      H1832   1.083       .  S
C1821      C1822   1.365       .  A
C1821      H1833   1.078       .  S
C1822      H1834   1.082       .  S
C1823      C1845   1.488       .  S
C1824      C1840   1.438       .  S
C1825      C1850   1.488       .  S
C1826      C1838   1.443       .  S
C1841      C1842   1.201       .  T
C1843      C1844   1.200       .  T
C1845      C1846   1.342       .  D
C1845      H1847   1.086       .  S
C1846      H1848   1.088       .  S
C1849      C1850   1.338       .  D
C1849      H1851   1.087       .  S
C1850      H1852   1.087       .  S
C1853      C1854   1.341       .  D
C1853      H2123   1.086       .  S
C1854      H1856   1.087   1_556  S
H1855      C2121   1.086       .  S
C1857      C1858   1.342   1_556  D
C1857      H2127   1.088       .  S
C1858      H1860   1.086       .  S
H1859      C2125   1.088       .  S
C1861      C1862   1.338   1_455  D
C1862      H1864   1.086       .  S
C1865      C1866   1.343   1_455  D
C1866      H1868   1.087       .  S
C1869      C1870   1.341   1_554  D
C1869      H1871   1.087       .  S
C1873      C1874   1.344   1_556  D
C1873      H1875   1.087       .  S
Zn1877     O1881   1.963       .  S
Zn1877     O1882   2.020       .  S
Zn1877     O1886   2.028       .  S
Zn1877     O1893   2.021       .  S
Zn1878     O1883   2.035       .  S
Zn1878     O1885   2.039       .  S
Zn1878     O1889   2.059       .  S
Zn1879     O1884   2.028       .  S
Zn1879     O1887   2.003       .  S
Zn1879     O1890   2.007       .  S
Zn1880     O1888   2.019       .  S
Zn1880     O1891   2.054       .  S
Zn1880     O1892   2.022       .  S
O1882      C1894   1.274       .  A
O1886      C1896   1.273       .  A
O1887      C1895   1.271       .  A
O1891      C1898   1.278       .  A
O1893      C1899   1.273       .  A
C1894      C2137   1.480       .  S
C1895      C1945   1.462       .  S
C1897      C2142   1.470       .  S
C1899      C1941   1.458       .  S
Zn1900     O1905   2.055       .  S
Zn1900     O1909   2.024       .  S
Zn1900     O1916   2.016       .  S
Zn1901     O1904   1.966       .  S
Zn1901     O1906   2.029       .  S
Zn1901     O1908   2.067       .  S
Zn1901     O1912   2.033       .  S
Zn1902     O1904   1.972       .  S
Zn1902     O1907   2.022       .  S
Zn1902     O1910   2.015       .  S
Zn1902     O1913   2.045       .  S
Zn1903     O1911   2.020       .  S
Zn1903     O1914   1.994       .  S
Zn1903     O1915   2.001       .  S
O1906      C1918   1.277       .  A
O1907      C1919   1.275   1_655  A
O1908      C1917   1.279       .  A
O1910      C1918   1.273       .  A
O1912      C1921   1.277       .  A
O1913      C1920   1.275       .  A
O1915      C1922   1.270       .  A
O1916      C1922   1.275       .  A
C1918      C1965   1.470       .  S
C1919      C2133   1.472       .  S
C1921      C2129   1.468   1_655  S
C1922      C1967   1.464       .  S
Zn1923     O1928   2.010       .  S
Zn1923     O1932   2.043       .  S
Zn1923     O1939   2.003       .  S
Zn1924     O1927   1.981       .  S
Zn1924     O1929   2.056       .  S
Zn1924     O1931   2.064       .  S
Zn1924     O1935   2.078       .  S
Zn1925     O1930   2.021       .  S
Zn1925     O1933   1.981       .  S
Zn1925     O1936   2.001       .  S
Zn1926     O1927   1.971       .  S
Zn1926     O1934   2.022       .  S
Zn1926     O1937   2.068       .  S
Zn1926     O1938   2.043       .  S
O1929      C1941   1.278       .  A
O1930      C1942   1.270       .  A
O1931      C1940   1.281       .  A
O1932      C1942   1.273       .  A
O1934      C1943   1.276       .  A
O1935      C1944   1.280       .  A
O1937      C1944   1.278       .  A
O1938      C1945   1.276       .  A
C1940      C2125   1.480       .  S
C1942      C1966   1.471       .  S
C1943      C2121   1.467       .  S
C1944      C1963   1.492       .  S
Zn1946     O1950   1.970       .  S
Zn1946     O1951   2.063       .  S
Zn1946     O1955   2.039       .  S
Zn1946     O1962   2.026       .  S
Zn1947     O1950   1.979       .  S
Zn1947     O1952   2.053       .  S
Zn1947     O1954   2.083       .  S
Zn1947     O1958   2.047       .  S
Zn1948     O1950   1.962       .  S
Zn1948     O1953   2.000       .  S
Zn1948     O1956   2.012       .  S
Zn1948     O1959   2.037       .  S
Zn1949     O1950   1.964       .  S
Zn1949     O1957   2.024       .  S
Zn1949     O1960   1.974       .  S
Zn1949     O1961   1.985       .  S
O1951      C1963   1.277       .  A
O1952      C1964   1.279       .  A
O1953      C1965   1.272       .  A
O1954      C1963   1.281       .  A
O1955      C1965   1.277       .  A
O1956      C1964   1.273       .  A
O1957      C1966   1.271       .  A
O1958      C1967   1.278       .  A
O1959      C1966   1.272       .  A
O1960      C1967   1.268       .  A
O1961      C1968   1.268       .  A
O1962      C1968   1.276       .  A
C1964      C2114   1.479       .  S
C1968      C2117   1.466       .  S
N1969      C1974   1.354       .  A
N1969      C1973   1.355       .  A
N1969      H2001   1.034       .  S
N1970      C1977   1.353       .  A
N1970      C1978   1.351       .  A
N1971      C1976   1.354       .  A
N1971      C1975   1.348       .  A
N1971      H2002   1.034       .  S
N1972      C1979   1.347       .  A
N1972      C1980   1.351       .  A
C1973      C1981   1.384       .  A
C1973      C1989   1.413       .  A
C1974      C1990   1.415   1_565  A
C1974      C1982   1.389       .  A
C1975      C1983   1.386       .  A
C1976      C1984   1.388       .  A
C1977      C1985   1.386       .  A
C1978      C1992   1.413   1_565  A
C1978      C1986   1.386       .  A
C1979      C1987   1.387       .  A
C1980      C1988   1.387       .  A
C1980      C1991   1.414       .  A
C1981      C1982   1.372       .  A
C1981      H1993   1.082       .  S
C1982      H1994   1.079       .  S
C1983      C1984   1.377       .  A
C1983      H1995   1.083       .  S
C1984      H1996   1.082       .  S
C1985      C1986   1.368       .  A
C1985      H1997   1.082       .  S
C1986      H1998   1.082       .  S
C1987      C1988   1.374       .  A
C1987      H1999   1.083       .  S
C1988      H2000   1.082       .  S
C1989      C2141   1.490       .  S
C1990      C2111   1.442       .  S
C1991      C2138   1.489       .  S
C1992      C2110   1.440       .  S
N2003      C2008   1.353       .  A
N2003      C2007   1.359       .  A
N2003      H2035   1.041       .  S
N2004      C2011   1.350       .  A
N2004      C2012   1.348       .  A
N2005      C2010   1.354       .  A
N2005      C2009   1.353       .  A
N2005      H2036   1.037       .  S
N2006      C2013   1.350       .  A
N2006      C2014   1.352       .  A
C2007      C2015   1.385       .  A
C2007      C2023   1.418       .  A
C2008      C2024   1.414   1_565  A
C2008      C2016   1.386       .  A
C2009      C2017   1.388       .  A
C2010      C2025   1.413       .  A
C2010      C2018   1.387       .  A
C2011      C2023   1.410       .  A
C2011      C2019   1.387       .  A
C2012      C2026   1.407   1_565  A
C2012      C2020   1.386       .  A
C2013      C2021   1.388       .  A
C2014      C2022   1.387       .  A
C2014      C2025   1.413       .  A
C2015      C2016   1.367       .  A
C2015      H2027   1.082       .  S
C2016      H2028   1.075       .  S
C2017      C2018   1.372       .  A
C2017      H2029   1.083       .  S
C2018      H2030   1.082       .  S
C2019      C2020   1.369       .  A
C2019      H2031   1.082       .  S
C2020      H2032   1.083       .  S
C2021      C2022   1.369       .  A
C2021      H2033   1.082       .  S
C2022      H2034   1.082       .  S
C2024      C2109   1.446       .  S
C2026      C2112   1.442       .  S
N2037      C2042   1.354       .  A
N2037      C2041   1.349       .  A
N2037      H2069   1.035       .  S
N2038      C2045   1.352       .  A
N2038      C2046   1.353       .  A
N2039      C2044   1.352       .  A
N2039      C2043   1.353       .  A
N2039      H2070   1.039       .  S
N2040      C2047   1.351       .  A
N2040      C2048   1.348       .  A
C2041      C2049   1.385       .  A
C2041      C2057   1.411   1_565  A
C2042      C2050   1.388       .  A
C2043      C2051   1.386       .  A
C2043      C2060   1.409       .  A
C2044      C2052   1.389       .  A
C2045      C2053   1.388       .  A
C2046      C2054   1.385       .  A
C2047      C2055   1.387       .  A
C2047      C2058   1.416       .  A
C2048      C2056   1.386       .  A
C2048      C2059   1.408   1_565  A
C2049      C2050   1.377       .  A
C2049      H2061   1.079       .  S
C2050      H2062   1.082       .  S
C2051      C2052   1.367       .  A
C2051      H2063   1.082       .  S
C2052      H2064   1.081       .  S
C2053      C2054   1.370       .  A
C2053      H2065   1.082       .  S
C2054      H2066   1.082       .  S
C2055      C2056   1.375       .  A
C2055      H2067   1.082       .  S
C2056      H2068   1.082       .  S
C2057      C2105   1.443   1_545  S
C2058      C2126   1.491       .  S
C2059      C2107   1.439       .  S
C2060      C2122   1.486       .  S
N2071      C2076   1.351       .  A
N2071      C2075   1.354       .  A
N2071      H2103   1.038       .  S
N2072      C2079   1.352       .  A
N2072      C2080   1.349       .  A
N2073      C2078   1.354       .  A
N2073      C2077   1.353       .  A
N2073      H2104   1.041       .  S
N2074      C2081   1.349       .  A
N2074      C2082   1.350       .  A
C2075      C2083   1.389       .  A
C2075      C2091   1.419       .  A
C2076      C2092   1.409       .  A
C2076      C2084   1.385       .  A
C2077      C2085   1.391       .  A
C2078      C2093   1.412       .  A
C2078      C2086   1.385       .  A
C2079      C2091   1.415       .  A
C2079      C2087   1.387       .  A
C2080      C2094   1.410       .  A
C2080      C2088   1.387       .  A
C2081      C2089   1.387       .  A
C2082      C2090   1.385       .  A
C2082      C2093   1.403       .  A
C2083      C2084   1.376       .  A
C2083      H2095   1.082       .  S
C2084      H2096   1.082       .  S
C2085      C2086   1.373       .  A
C2085      H2097   1.082       .  S
C2086      H2098   1.082       .  S
C2087      C2088   1.377       .  A
C2087      H2099   1.082       .  S
C2088      H2100   1.083       .  S
C2089      C2090   1.365       .  A
C2089      H2101   1.079       .  S
C2090      H2102   1.082       .  S
C2091      C2113   1.489       .  S
C2092      C2108   1.439       .  S
C2093      C2118   1.485       .  S
C2094      C2106   1.444       .  S
C2109      C2110   1.201       .  T
C2111      C2112   1.201       .  T
C2113      C2114   1.343       .  D
C2113      H2115   1.086       .  S
C2114      H2116   1.087       .  S
C2117      C2118   1.338       .  D
C2117      H2119   1.087       .  S
C2118      H2120   1.087       .  S
C2121      C2122   1.339       .  D
C2122      H2124   1.087       .  S
C2125      C2126   1.342       .  D
C2126      H2128   1.086       .  S
C2129      C2130   1.337   1_455  D
C2130      H2132   1.086       .  S
C2133      C2134   1.345   1_455  D
C2134      H2136   1.086       .  S
C2137      C2138   1.343       .  D
C2137      H2139   1.087       .  S
C2141      C2142   1.343       .  D
C2141      H2143   1.087       .  S
