geometry optimzed in LAMMPS
_audit_creation_date              2020-11-30 
_audit_creation_method            'lammps2cif' 
_symmetry_space_group_name_H-M    'P1' 
_symmetry_Int_Tables_number       1 
_symmetry_cell_setting            triclinic 
loop_ 
_symmetry_equiv_pos_as_xyz 
  x,y,z 
_cell_length_a                    70.32211591 
_cell_length_b                    70.4056299858898 
_cell_length_c                    119.28611859115894 
_cell_angle_alpha                 89.95427073394346 
_cell_angle_beta                  90.24424222788365 
_cell_angle_gamma                 122.19999934478969 
loop_ 
_atom_site_label 
_atom_site_type_symbol 
_atom_site_fract_x 
_atom_site_fract_y 
_atom_site_fract_z 
_atom_site_charge 
C1          C  0.65039531  0.55769865  0.97624873     0.86400
C2          C  0.67049973  0.55606642  0.98018268    -0.53900
C3          C  0.67265958  0.54028401  0.97457830     0.09300
C4          C  0.65413961  0.52732748  0.96562302     0.20300
C5          C  0.65410774  0.56173564  0.96347452    -0.54600
C6          C  0.65588769  0.54573292  0.95785419     0.09400
C7          C  0.62988933  0.53369547  0.97726137    -0.54100
C8          C  0.63143937  0.51778753  0.97158606     0.10000
H9          H  0.68253860  0.56681521  0.98649940     0.14500
H10         H  0.65568737  0.51446094  0.96112796     0.00200
H11         H  0.65443903  0.57557092  0.95925240     0.14800
H12         H  0.61479317  0.52980633  0.98172927     0.14600
C13         C  0.42330401  0.29206049  0.96420343     0.86400
C14         C  0.44689434  0.31336447  0.96581605    -0.53900
C15         C  0.44823438  0.33329615  0.96399518     0.09300
C16         C  0.42511366  0.32975683  0.96100261     0.20300
C17         C  0.40818821  0.29559641  0.97228312    -0.54600
C18         C  0.40923559  0.31551058  0.97064068     0.09400
C19         C  0.41577403  0.29452563  0.95247915    -0.54100
C20         C  0.41657792  0.31407393  0.95075734     0.10000
H21         H  0.46120952  0.31236043  0.96823467     0.14500
H22         H  0.42519735  0.34525189  0.95935754     0.00200
H23         H  0.39793439  0.28388122  0.97879395     0.14800
H24         H  0.41037748  0.28175965  0.94602142     0.14600
C25         C  0.42327253  0.11161831  0.96224753     0.86400
C26         C  0.41016784  0.09078453  0.96994246    -0.53900
C27         C  0.41385768  0.07388807  0.96768514     0.09300
C28         C  0.43010690  0.07926894  0.95779113     0.20300
C29         C  0.44794405  0.11832569  0.96337622    -0.54600
C30         C  0.45179999  0.10154365  0.96113672     0.09400
C31         C  0.41637328  0.10201045  0.95034500    -0.54100
C32         C  0.41991148  0.08517489  0.94786554     0.10000
H33         H  0.39949039  0.08945122  0.97679511     0.14500
H34         H  0.43255516  0.06530048  0.95593608     0.00200
H35         H  0.46119832  0.13521346  0.96570472     0.14800
H36         H  0.40982315  0.10862138  0.94427088     0.14600
C37         C  0.64340642  0.07751524  0.97596286     0.86400
C38         C  0.64506515  0.07324365  0.96344045    -0.53900
C39         C  0.64841947  0.09015227  0.95643575     0.09300
C40         C  0.65005236  0.11015492  0.96265393     0.20300
C41         C  0.66541850  0.10033097  0.97838420    -0.54600
C42         C  0.66927431  0.11762047  0.97136964     0.09400
C43         C  0.62494612  0.08289977  0.97645494    -0.54100
C44         C  0.62798575  0.09968305  0.96945432     0.10000
H45         H  0.64351832  0.05794640  0.96039376     0.14500
H46         H  0.65243309  0.12356055  0.95688285     0.00200
H47         H  0.67705863  0.10267083  0.98497281     0.14800
H48         H  0.60990777  0.07307014  0.98146420     0.14600
C49         C  0.89887900  0.32925727  0.97596443     0.86400
C50         C  0.87761838  0.30613370  0.97872143    -0.53900
C51         C  0.85895276  0.30082717  0.97229165     0.09300
C52         C  0.86367084  0.31959754  0.96375905     0.20300
C53         C  0.90192930  0.32798706  0.96333655    -0.54600
C54         C  0.88390490  0.32337843  0.95689750     0.09400
C55         C  0.89120388  0.34585020  0.97721162    -0.54100
C56         C  0.87323725  0.34135166  0.97074121     0.10000
H57         H  0.87729922  0.29492429  0.98505005     0.14500
H58         H  0.84909120  0.31590589  0.95844646     0.00200
H59         H  0.91755151  0.33118572  0.95974784     0.14800
H60         H  0.90057636  0.36110228  0.98217109     0.14600
C61         C  0.85113291  0.53966001  0.97066703     0.86400
C62         C  0.85846452  0.54639647  0.95847268    -0.53900
C63         C  0.87607781  0.54471025  0.95513601     0.09300
C64         C  0.88483384  0.53606525  0.96451479     0.20300
C65         C  0.84661255  0.51580751  0.97171291    -0.54600
C66         C  0.86409275  0.51365745  0.96852830     0.09400
C67         C  0.87295919  0.55433840  0.97758243    -0.54100
C68         C  0.89069532  0.55249762  0.97441441     0.10000
H69         H  0.84996434  0.55174846  0.95289207     0.14500
H70         H  0.89909563  0.53454471  0.96198130     0.00200
H71         H  0.83065143  0.50176742  0.97462557     0.14800
H72         H  0.87455167  0.56522502  0.98438960     0.14600
C73         C  0.54925477  0.67488881  0.03102357     0.86400
C74         C  0.56429680  0.67127132  0.02292540    -0.53900
C75         C  0.56496271  0.65243469  0.02526553     0.09300
C76         C  0.55041108  0.63905629  0.03542738     0.20300
C77         C  0.52625441  0.65267927  0.03027630    -0.54600
C78         C  0.52671353  0.63392041  0.03262070     0.09400
C79         C  0.55825030  0.67470470  0.04273904    -0.54100
C80         C  0.55879869  0.65606087  0.04513585     0.10000
H81         H  0.57348248  0.68229089  0.01598938     0.14500
H82         H  0.55077255  0.62386233  0.03742070     0.00200
H83         H  0.51090585  0.65194725  0.02800462     0.14800
H84         H  0.56314330  0.68808325  0.04879119     0.14600
C85         C  0.12162416  0.42094720  0.03336741     0.86400
C86         C  0.10178911  0.40738437  0.02502569    -0.53900
C87         C  0.08277850  0.40754945  0.02762256     0.09300
C88         C  0.08536216  0.42092540  0.03837708     0.20300
C89         C  0.12485549  0.44443814  0.03358134    -0.54600
C90         C  0.10600181  0.44466993  0.03616895     0.09400
C91         C  0.11149961  0.41064368  0.04483249    -0.54100
C92         C  0.09260863  0.41051045  0.04753109     0.10000
H93         H  0.10260840  0.39885192  0.01766630     0.14500
H94         H  0.06981254  0.42044246  0.04055796     0.00200
H95         H  0.14095852  0.45961091  0.03186997     0.14800
H96         H  0.11889424  0.40407895  0.05041672     0.14600
C97         C  0.08057506  0.63592387  0.02016690     0.86400
C98         C  0.07789155  0.63930773  0.03264718    -0.53900
C99         C  0.09523841  0.64271554  0.03939574     0.09300
C100        C  0.11422761  0.64277818  0.03286137     0.20300
C101        C  0.10336155  0.65715872  0.01703838    -0.54600
C102        C  0.12112894  0.66109234  0.02372462     0.09400
C103        C  0.08505824  0.61689969  0.01990617    -0.54100
C104        C  0.10214929  0.61984839  0.02667996     0.10000
H105        H  0.06335024  0.63915249  0.03579530     0.14500
H106        H  0.12824803  0.64539947  0.03829730     0.00200
H107        H  0.10537453  0.66855250  0.01039214     0.14800
H108        H  0.07477001  0.60181811  0.01494999     0.14600
C109        C  0.30263696  0.42233088  0.02877026     0.86400
C110        C  0.32295647  0.44633755  0.02706365    -0.53900
C111        C  0.34335341  0.44949451  0.02986174     0.09300
C112        C  0.34147785  0.42771543  0.03385849     0.20300
C113        C  0.30841529  0.40757556  0.02173156    -0.54600
C114        C  0.32886505  0.41028973  0.02432064     0.09400
C115        C  0.30468177  0.41661813  0.04099106    -0.54100
C116        C  0.32503620  0.41980151  0.04378815     0.10000
H117        H  0.32103518  0.45976137  0.02403308     0.14500
H118        H  0.35767040  0.42989371  0.03637795     0.00200
H119        H  0.29770991  0.39645120  0.01512347     0.14800
H120        H  0.29161798  0.41218650  0.04714158     0.14600
C121        C  0.54759618  0.85391019  0.03151006     0.86400
C122        C  0.55415869  0.86242978  0.04360112    -0.53900
C123        C  0.55174308  0.87984111  0.04633989     0.09300
C124        C  0.54304180  0.88758737  0.03654459     0.20300
C125        C  0.52353832  0.84879254  0.03007207    -0.54600
C126        C  0.52090757  0.86624673  0.03263763     0.09400
C127        C  0.56201540  0.87513780  0.02425537    -0.54100
C128        C  0.55976237  0.89287182  0.02684784     0.10000
H129        H  0.55995230  0.85496197  0.04960603     0.14500
H130        H  0.54117295  0.90183690  0.03869950     0.00200
H131        H  0.50971410  0.83251581  0.02729165     0.14800
H132        H  0.57309081  0.87640013  0.01763409     0.14600
C133        C  0.32972758  0.89178697  0.02063340     0.86400
C134        C  0.30787904  0.86971912  0.01709019    -0.53900
C135        C  0.30334505  0.85095686  0.02299700     0.09300
C136        C  0.32186742  0.85620105  0.03176989     0.20300
C137        C  0.32714599  0.89320173  0.03341503    -0.54600
C138        C  0.32299327  0.87459265  0.03924771     0.09400
C139        C  0.34813413  0.88646633  0.01950820    -0.54100
C140        C  0.34452388  0.86824777  0.02545365     0.10000
H141        H  0.29660539  0.86883484  0.01065099     0.14500
H142        H  0.31895953  0.84139876  0.03656044     0.00200
H143        H  0.32848236  0.90768128  0.03745858     0.14800
H144        H  0.36367570  0.89744206  0.01504150     0.14600
O145        O  0.64415602  0.47412816  0.83647072    -0.57900
C146        C  0.70546524  0.50070876  0.83797247     0.74700
O147        O  0.67014984  0.53611455  0.81907858    -0.59100
C148        C  0.62904685  0.47624696  0.83196185     0.74700
C149        C  0.67307994  0.53401501  0.85510452     0.77100
Cd150      Cd  0.67390884  0.51383192  0.83411142     1.37500
O151        O  0.68671758  0.48774659  0.83323645    -0.57900
O152        O  0.65804127  0.51451131  0.85198282    -0.56700
C153        C  0.68071612  0.53223793  0.81179447     0.77000
O154        O  0.68859958  0.54556821  0.84809803    -0.59100
O155        O  0.70973118  0.51995475  0.84079979    -0.57500
O156        O  0.63501506  0.49553756  0.82835087    -0.57500
O157        O  0.69024731  0.52235079  0.81522313    -0.56700
O158        O  0.64031771  0.13863782  0.82592827    -0.57900
C159        C  0.69576818  0.17472274  0.83604238     0.74700
O160        O  0.65057431  0.11379353  0.84949468    -0.59100
C161        C  0.62322534  0.11882692  0.82583487     0.74700
C162        C  0.67646536  0.11678792  0.80917828     0.77100
Cd163      Cd  0.66686085  0.12797141  0.83098162     1.37500
O164        O  0.70190539  0.16096333  0.83765437    -0.57900
O165        O  0.66085193  0.10220482  0.81530894    -0.56700
C166        C  0.66464699  0.10927580  0.85306248     0.77000
O167        O  0.68965750  0.13560226  0.81372914    -0.59100
O168        O  0.67649087  0.16689925  0.83175340    -0.57500
O169        O  0.62635351  0.10320252  0.82834870    -0.57500
O170        O  0.67942081  0.11180142  0.84609394    -0.56700
O171        O  0.38508877  0.27278816  0.84172519    -0.57900
C172        C  0.42864638  0.32946182  0.83541886     0.74700
O173        O  0.36949985  0.31497816  0.81686741    -0.59100
C174        C  0.36559575  0.25650242  0.83921893     0.74700
C175        C  0.36839596  0.31589565  0.85423920     0.77100
Cd176      Cd  0.38078422  0.30205001  0.83416816     1.37500
O177        O  0.41842038  0.30861879  0.83742327    -0.57900
O178        O  0.35423343  0.29770556  0.84936236    -0.56700
C179        C  0.37505034  0.30460306  0.81025300     0.77000
O180        O  0.38603750  0.32891792  0.84881321    -0.59100
O181        O  0.41665235  0.33721214  0.83271527    -0.57500
O182        O  0.35244682  0.26124341  0.83447294    -0.57500
O183        O  0.38092002  0.29235261  0.81481540    -0.56700
O184        O  0.42894535  0.09640303  0.82247309    -0.57900
C185        C  0.37359267  0.09251372  0.82864436     0.74700
O186        O  0.37876677  0.03446922  0.81000834    -0.59100
C187        C  0.43616722  0.08462671  0.81859121     0.74700
C188        C  0.38743927  0.04637634  0.84705101     0.77100
Cd189      Cd  0.39017017  0.06391788  0.82472359     1.37500
O190        O  0.39420469  0.10026764  0.82673981    -0.57900
O191        O  0.40563797  0.06067125  0.84240146    -0.56700
C192        C  0.37410264  0.04472017  0.80282469     0.77000
O193        O  0.36993019  0.03795487  0.84094710    -0.59100
O194        O  0.36058152  0.07133924  0.82872966    -0.57500
O195        O  0.42205442  0.06377914  0.81757527    -0.57500
O196        O  0.37357316  0.06132860  0.80637135    -0.56700
O197        O  0.90829233  0.39079577  0.84157010    -0.57900
C198        C  0.84986425  0.34615349  0.83828125     0.74700
O199        O  0.90055580  0.35840213  0.81565475    -0.59100
C200        C  0.92856218  0.39797490  0.83919052     0.74700
C201        C  0.89555991  0.32828324  0.85439041     0.77100
Cd202      Cd  0.89338164  0.35220802  0.83558366     1.37500
O203        O  0.86216765  0.34843699  0.84655281    -0.57900
O204        O  0.87862197  0.31936041  0.84793427    -0.56700
C205        C  0.89566332  0.33896386  0.81293497     0.77000
O206        O  0.91277218  0.34624577  0.85097945    -0.59100
O207        O  0.85859937  0.34897961  0.82869621    -0.57500
O208        O  0.93259831  0.38392343  0.83507561    -0.57500
O209        O  0.89023098  0.32503030  0.82088575    -0.56700
O210        O  0.88193563  0.52564119  0.82335420    -0.57900
C211        C  0.94746108  0.54859641  0.82658416     0.74700
O212        O  0.93110564  0.58776350  0.81597126    -0.59100
C213        C  0.87159553  0.51852817  0.83253440     0.74700
C214        C  0.92043013  0.57584953  0.85427640     0.77100
Cd215      Cd  0.91469761  0.55979020  0.83138329     1.37500
O216        O  0.92701484  0.53603066  0.82380923    -0.57900
O217        O  0.92721170  0.56349800  0.85084447    -0.56700
C218        C  0.91246346  0.58427431  0.81247436     0.77000
O219        O  0.91261850  0.58284008  0.84684263    -0.59100
O220        O  0.95316491  0.56708648  0.83121028    -0.57500
O221        O  0.88186369  0.52965252  0.84119376    -0.57500
O222        O  0.89573222  0.57245623  0.81873815    -0.56700
C223        C  0.75465601  0.99461684  0.64043250     0.86400
C224        C  0.75535962  0.99655230  0.62748693    -0.53900
C225        C  0.77177789  0.99459100  0.62259484     0.09300
C226        C  0.78609732  0.99090108  0.63103360     0.20300
C227        C  0.75239150  0.97183003  0.64259690    -0.54600
C228        C  0.76879573  0.96962735  0.63767140     0.09400
C229        C  0.77855625  0.01227430  0.64424954    -0.54100
C230        C  0.79513823  0.01075754  0.63931789     0.10000
H231        H  0.74348529  0.99821882  0.62244968     0.14500
H232        H  0.79959458  0.98983036  0.62691491     0.00200
H233        H  0.73889055  0.95867539  0.64756291     0.14800
H234        H  0.78208765  0.02583278  0.64994295     0.14600
C235        C  0.99034270  0.23331757  0.64546860     0.86400
C236        C  0.01341831  0.23608492  0.64772580    -0.53900
C237        C  0.01734918  0.22205995  0.64147998     0.09300
C238        C  0.99737439  0.20634931  0.63361501     0.20300
C239        C  0.98993382  0.23628798  0.63272819    -0.54600
C240        C  0.99359157  0.22230535  0.62653388     0.09400
C241        C  0.97321454  0.20828165  0.64751309    -0.54100
C242        C  0.97638895  0.19401293  0.64121561     0.10000
H243        H  0.02562530  0.24795492  0.65366803     0.14500
H244        H  0.00000213  0.19493360  0.62838446     0.00200
H245        H  0.98714055  0.24862799  0.62891443     0.14800
H246        H  0.95871949  0.20242248  0.65290734     0.14600
C247        C  0.19069263  0.21180065  0.63170956     0.86400
C248        C  0.19904149  0.21859734  0.61965234    -0.53900
C249        C  0.21676107  0.21675761  0.61681379     0.09300
C250        C  0.22461487  0.20787374  0.62648476     0.20300
C251        C  0.18600974  0.18787597  0.63301313    -0.54600
C252        C  0.20361959  0.18565391  0.63030761     0.09400
C253        C  0.21199412  0.22645926  0.63901232    -0.54100
C254        C  0.22975314  0.22422510  0.63634128     0.10000
H255        H  0.19119229  0.22419392  0.61377349     0.14500
H256        H  0.23900640  0.20629632  0.62422884     0.00200
H257        H  0.17002931  0.17387738  0.63595377     0.14800
H258        H  0.21288376  0.23686028  0.64593020     0.14600
C259        C  0.23325826  0.99707103  0.63758371     0.86400
C260        C  0.21175190  0.97443517  0.64071167    -0.53900
C261        C  0.19254003  0.97009211  0.63526331     0.09300
C262        C  0.19680413  0.98927818  0.62720583     0.20300
C263        C  0.23426698  0.99595810  0.62471745    -0.54600
C264        C  0.21540520  0.99214872  0.61918854     0.09400
C265        C  0.22724220  0.01470874  0.63974029    -0.54100
C266        C  0.20844900  0.01109704  0.63429235     0.10000
H267        H  0.21158700  0.96242102  0.64643794     0.14500
H268        H  0.18141817  0.98611086  0.62285583     0.00200
H269        H  0.24886075  0.99816624  0.62039144     0.14800
H270        H  0.23814785  0.02978116  0.64459103     0.14600
C271        C  0.97818598  0.74696729  0.64291809     0.86400
C272        C  0.98180047  0.74425697  0.63044727    -0.53900
C273        C  0.98439167  0.76116800  0.62369938     0.09300
C274        C  0.98373748  0.77983168  0.63008682     0.20300
C275        C  0.99909369  0.77020704  0.64598819    -0.54600
C276        C  0.00245396  0.78758274  0.63915093     0.09400
C277        C  0.95852628  0.75050735  0.64303597    -0.54100
C278        C  0.96096674  0.76733835  0.63631582     0.10000
H279        H  0.98177491  0.72985293  0.62717449     0.14500
H280        H  0.98582714  0.79338292  0.62447532     0.00200
H281        H  0.01086280  0.77252618  0.65254245     0.14800
H282        H  0.94341172  0.73988672  0.64788393     0.14600
C283        C  0.76056173  0.78593542  0.63430119     0.86400
C284        C  0.74613752  0.76504371  0.64185529    -0.53900
C285        C  0.74604339  0.74625522  0.63859635     0.09300
C286        C  0.76061435  0.75027260  0.62815253     0.20300
C287        C  0.78399595  0.78906617  0.63443467    -0.54600
C288        C  0.78424250  0.77043648  0.63130880     0.09400
C289        C  0.75142940  0.77753119  0.62245494    -0.54100
C290        C  0.75107995  0.75879630  0.61919080     0.10000
H291        H  0.73645480  0.76468557  0.64896016     0.14500
H292        H  0.76071129  0.73534903  0.62535693     0.00200
H293        H  0.79891475  0.80456466  0.63719523     0.14800
H294        H  0.74526039  0.78567975  0.61715165     0.14600
C295        C  0.89641334  0.32169377  0.69117524     0.86400
C296        C  0.89782965  0.34375434  0.68837228    -0.53900
C297        C  0.88281813  0.34705400  0.69404804     0.09300
C298        C  0.86715667  0.32711470  0.70188065     0.20300
C299        C  0.89857189  0.32206629  0.70406813    -0.54600
C300        C  0.88324114  0.32469303  0.70971085     0.09400
C301        C  0.87179044  0.30321221  0.68896537    -0.54100
C302        C  0.85631527  0.30571053  0.69453038     0.10000
H303        H  0.90999747  0.35577681  0.68246880     0.14500
H304        H  0.85464921  0.32914263  0.70641600     0.00200
H305        H  0.91098175  0.32043841  0.70855283     0.14800
H306        H  0.86717657  0.28848723  0.68394736     0.14600
C307        C  0.87485962  0.52225680  0.69884566     0.86400
C308        C  0.88335340  0.53164220  0.71066356    -0.53900
C309        C  0.88339933  0.55057502  0.71318582     0.09300
C310        C  0.87490805  0.55864574  0.70350240     0.20300
C311        C  0.85158103  0.51938204  0.69801833    -0.54600
C312        C  0.85150998  0.53831599  0.70044976     0.09400
C313        C  0.88984814  0.54240262  0.69096865    -0.54100
C314        C  0.88996036  0.56162556  0.69340490     0.10000
H315        H  0.88851207  0.52356679  0.71664081     0.14500
H316        H  0.87462567  0.57380324  0.70563987     0.00200
H317        H  0.83650071  0.50371803  0.69554318     0.14800
H318        H  0.89951408  0.54172424  0.68412355     0.14600
C319        C  0.66040853  0.56568024  0.69201424     0.86400
C320        C  0.63933750  0.54364961  0.68801272    -0.53900
C321        C  0.63594737  0.52465050  0.69323131     0.09300
C322        C  0.65478620  0.52966773  0.70172837     0.20300
C323        C  0.65788088  0.56535534  0.70490951    -0.54600
C324        C  0.65512295  0.54660414  0.70995564     0.09400
C325        C  0.67995128  0.56207803  0.69039021    -0.54100
C326        C  0.67718821  0.54339984  0.69543770     0.10000
H327        H  0.62748978  0.54346023  0.68208645     0.14500
H328        H  0.65279624  0.51462746  0.70589355     0.00200
H329        H  0.65966533  0.57911661  0.70984453     0.14800
H330        H  0.69525839  0.57395553  0.68597678     0.14600
C331        C  0.66131910  0.08225061  0.68747598     0.86400
C332        C  0.66058108  0.07964237  0.70030206    -0.53900
C333        C  0.65774212  0.09475282  0.70606029     0.09300
C334        C  0.65542331  0.11103584  0.69834487     0.20300
C335        C  0.63904872  0.08068953  0.68458187    -0.54600
C336        C  0.63573779  0.09574391  0.69022457     0.09400
C337        C  0.67955043  0.10689018  0.68537286    -0.54100
C338        C  0.67677988  0.12203188  0.69106527     0.10000
H339        H  0.66244847  0.06699118  0.70445088     0.14500
H340        H  0.65358474  0.12366207  0.70291316     0.00200
H341        H  0.62648810  0.06822133  0.67897456     0.14800
H342        H  0.69407026  0.11189857  0.68012019     0.14600
C343        C  0.46079752  0.10436238  0.69180024     0.86400
C344        C  0.44173455  0.09068124  0.68310255    -0.53900
C345        C  0.42212267  0.08991104  0.68530193     0.09300
C346        C  0.42368208  0.10327271  0.69591329     0.20300
C347        C  0.46359409  0.12763822  0.69194432    -0.54600
C348        C  0.44425487  0.12724193  0.69405664     0.09400
C349        C  0.44992738  0.09378661  0.70309598    -0.54100
C350        C  0.43064625  0.09321273  0.70536546     0.10000
H351        H  0.44312984  0.08186886  0.67603874     0.14500
H352        H  0.40806784  0.10292532  0.69775429     0.00200
H353        H  0.47955575  0.14307257  0.69033638     0.14800
H354        H  0.45737290  0.08772930  0.70896042     0.14600
C355        C  0.41122445  0.31408740  0.68999383     0.86400
C356        C  0.41664895  0.29575512  0.68938161    -0.53900
C357        C  0.43336529  0.29861249  0.69639838     0.09300
C358        C  0.44345090  0.32030925  0.70357098     0.20300
C359        C  0.40663011  0.31545909  0.70243344    -0.54600
C360        C  0.42330752  0.31883027  0.70967084     0.09400
C361        C  0.43400557  0.33616556  0.68783223    -0.54100
C362        C  0.45096515  0.33963707  0.69501946     0.10000
H363        H  0.40726000  0.28116689  0.68399130     0.14500
H364        H  0.45720970  0.32286460  0.70918550     0.00200
H365        H  0.39095682  0.31340082  0.70518298     0.14800
H366        H  0.43642502  0.34850672  0.68163874     0.14600
O367        O  0.83852181  0.96744417  0.50313766    -0.57900
C368        C  0.87891814  0.02789718  0.49758211     0.74700
O369        O  0.81851831  0.98352603  0.48147737    -0.59100
C370        C  0.81808493  0.95234665  0.50471127     0.74700
C371        C  0.81820189  0.00776215  0.52197360     0.77100
Cd372      Cd  0.83136255  0.99779603  0.50064307     1.37500
O373        O  0.86482383  0.03315834  0.49496469    -0.57900
O374        O  0.80378119  0.99550421  0.51463265    -0.56700
C375        C  0.81432754  0.99804970  0.47830038     0.77000
O376        O  0.83850852  0.01696614  0.51907460    -0.59100
O377        O  0.87106321  0.00859867  0.50179147    -0.57500
O378        O  0.80411797  0.95844543  0.50434369    -0.57500
O379        O  0.81703181  0.01234237  0.48563227    -0.56700
O380        O  0.15486918  0.96937414  0.48715950    -0.57900
C381        C  0.17911206  0.04398376  0.49447947     0.74700
O382        O  0.18322925  0.98795143  0.51194008    -0.59100
C383        C  0.13863694  0.96974498  0.49142927     0.74700
C384        C  0.20710977  0.00678760  0.47364112     0.77100
Cd385      Cd  0.18450889  0.00627516  0.49405572     1.37500
O386        O  0.16831518  0.02782239  0.48771370    -0.57900
O387        O  0.20055823  0.99125577  0.48078809    -0.56700
C388        C  0.20223383  0.00312817  0.51566352     0.77000
O389        O  0.20539017  0.02311125  0.47647695    -0.59100
O390        O  0.19316151  0.04316438  0.50080954    -0.57500
O391        O  0.14366374  0.98672471  0.49734085    -0.57500
O392        O  0.21402701  0.01936698  0.50908302    -0.56700
O393        O  0.21941498  0.27806071  0.48827739    -0.57900
C394        C  0.20683155  0.22081872  0.48971810     0.74700
O395        O  0.26943071  0.26070456  0.48156797    -0.59100
C396        C  0.22760561  0.29472277  0.49485774     0.74700
C397        C  0.25781356  0.26173781  0.51659839     0.77100
Cd398      Cd  0.24416684  0.26532873  0.49413438     1.37500
O399        O  0.22508064  0.22969546  0.48438072    -0.57900
O400        O  0.24285218  0.24526420  0.51100700    -0.56700
C401        C  0.27011451  0.27386720  0.47410758     0.77000
O402        O  0.26891077  0.28019703  0.51135576    -0.59100
O403        O  0.20501862  0.23306988  0.49685761    -0.57500
O404        O  0.24381221  0.29805430  0.50101250    -0.57500
O405        O  0.26306228  0.28632812  0.47697393    -0.56700
O406        O  0.03573054  0.21279476  0.49772371    -0.57900
C407        C  0.07145872  0.27434835  0.50802429     0.74700
O408        O  0.02926488  0.25810770  0.48494825    -0.59100
C409        C  0.02343262  0.19839024  0.50501831     0.74700
C410        C  0.00475167  0.24304885  0.52393135     0.77100
Cd411      Cd  0.02568671  0.24041415  0.50360401     1.37500
O412        O  0.06393750  0.25366173  0.50940158    -0.57900
O413        O  0.02415004  0.25856624  0.52098458    -0.56700
C414        C  0.01134402  0.24215778  0.48068051     0.77000
O415        O  0.99340846  0.22814493  0.51661089    -0.59100
O416        O  0.05785827  0.27943117  0.50424985    -0.57500
O417        O  0.01340039  0.20400348  0.51170927    -0.57500
O418        O  0.99865293  0.22649908  0.48734313    -0.56700
O419        O  0.75188720  0.71139178  0.49522433    -0.57900
C420        C  0.74607205  0.75281548  0.50401461     0.74700
O421        O  0.70178816  0.71828121  0.48491106    -0.59100
C422        C  0.74551204  0.69085214  0.49487175     0.74700
C423        C  0.70059593  0.69143240  0.52301226     0.77100
Cd424      Cd  0.71620115  0.70579446  0.50026526     1.37500
O425        O  0.75189543  0.74170740  0.49823710    -0.57900
O426        O  0.69222240  0.70019855  0.51709548    -0.56700
C427        C  0.69454783  0.70103701  0.47886937     0.77000
O428        O  0.71311131  0.68652398  0.51790661    -0.59100
O429        O  0.72657680  0.74204809  0.50820807    -0.57500
O430        O  0.72517915  0.67669164  0.49734561    -0.57500
O431        O  0.69290229  0.68415235  0.48363839    -0.56700
O432        O  0.93354633  0.74005518  0.48846100    -0.57900
C433        C  0.98075486  0.79018611  0.49726412     0.74700
O434        O  0.98453231  0.74006842  0.51440204    -0.59100
C435        C  0.92076077  0.71905191  0.48973931     0.74700
C436        C  0.98922744  0.73803570  0.47845145     0.77100
Cd437      Cd  0.96648840  0.74362526  0.49703092     1.37500
O438        O  0.96822887  0.77710403  0.48956674    -0.57900
O439        O  0.99885784  0.75574489  0.48430035    -0.56700
C440        C  0.96778253  0.73466284  0.52062698     0.77000
O441        O  0.97147251  0.72158257  0.48252414    -0.59100
O442        O  0.98599114  0.78155392  0.50502854    -0.57500
O443        O  0.92901054  0.70914191  0.49474414    -0.57500
O444        O  0.95028059  0.73128684  0.51571290    -0.56700
O445        O  0.59492039  0.86039107  0.17400272    -0.57900
C446        C  0.54427441  0.85357703  0.16784604     0.74700
O447        O  0.61023762  0.90772237  0.18700405    -0.59100
C448        C  0.61424623  0.86891116  0.16975850     0.74700
C449        C  0.59304082  0.91171642  0.14767807     0.77100
Cd450      Cd  0.58978625  0.89082151  0.16917851     1.37500
O451        O  0.55265565  0.86400197  0.17694427    -0.57900
O452        O  0.60983766  0.91229690  0.15200937    -0.56700
C453        C  0.59733736  0.91380057  0.19048064     0.77000
O454        O  0.57627948  0.90498497  0.15402218    -0.59100
O455        O  0.55750537  0.85912947  0.15964003    -0.57500
O456        O  0.62251486  0.88785005  0.16506634    -0.57500
O457        O  0.58333975  0.91271803  0.18339335    -0.56700
O458        O  0.31351806  0.79768859  0.16564337    -0.57900
C459        C  0.36934744  0.83573531  0.16231261     0.74700
O460        O  0.33955602  0.86672449  0.14957959    -0.59100
C461        C  0.29389004  0.79286158  0.16792766     0.74700
C462        C  0.33116703  0.85875586  0.18616400     0.77100
Cd463      Cd  0.33021065  0.83829962  0.16470955     1.37500
O464        O  0.35064481  0.81937133  0.16557238    -0.57900
O465        O  0.31675385  0.85509937  0.17870026    -0.56700
C466        C  0.32512520  0.85296873  0.14261447     0.77000
O467        O  0.34607041  0.85487155  0.18333790    -0.59100
O468        O  0.37024410  0.85386610  0.16023107    -0.57500
O469        O  0.29103949  0.80913990  0.16863051    -0.57500
O470        O  0.31242823  0.83313465  0.14611332    -0.56700
O471        O  0.06948328  0.58146000  0.15446007    -0.57900
C472        C  0.12208908  0.62657995  0.16406232     0.74700
O473        O  0.05797715  0.62531243  0.14621419    -0.59100
C474        C  0.04853478  0.57077660  0.15618014     0.74700
C475        C  0.06867625  0.62844716  0.18331348     0.77100
Cd476      Cd  0.07737716  0.61764263  0.16128123     1.37500
O477        O  0.11178836  0.61997303  0.15479884    -0.57900
O478        O  0.06078052  0.60854579  0.17998412    -0.56700
C479        C  0.07577973  0.64036442  0.14147522     0.77000
O480        O  0.07913952  0.64376042  0.17605816    -0.59100
O481        O  0.11109882  0.62739927  0.17220259    -0.57500
O482        O  0.04079549  0.58175047  0.16042657    -0.57500
O483        O  0.09384574  0.64726055  0.14684312    -0.56700
O484        O  0.04308126  0.41078004  0.16987612    -0.57900
C485        C  0.09114075  0.40580015  0.16022928     0.74700
O486        O  0.02227170  0.35427632  0.18262293    -0.59100
C487        C  0.02308693  0.40250124  0.16640950     0.74700
C488        C  0.03248401  0.35578303  0.14419684     0.77100
Cd489      Cd  0.04434634  0.37729342  0.16585122     1.37500
O490        O  0.08206957  0.41299994  0.16670152    -0.57900
O491        O  0.02633026  0.36878007  0.14740762    -0.56700
C492        C  0.03931423  0.35763816  0.18805448     0.77000
O493        O  0.04077002  0.34939236  0.15167551    -0.59100
O494        O  0.07849069  0.38624388  0.15637003    -0.57500
O495        O  0.01278305  0.38243022  0.16293128    -0.57500
O496        O  0.05751989  0.36709651  0.18269429    -0.56700
O497        O  0.29855438  0.46801942  0.16182192    -0.57900
C498        C  0.35792535  0.50407800  0.16754113     0.74700
O499        O  0.33186334  0.43680535  0.18153014    -0.59100
C500        C  0.28152609  0.44835786  0.16087173     0.74700
C501        C  0.33630593  0.44131656  0.14566552     0.77100
Cd502      Cd  0.32539880  0.45696876  0.16582298     1.37500
O503        O  0.33972013  0.49651474  0.16215330    -0.57900
O504        O  0.34725326  0.46167717  0.14864719    -0.56700
C505        C  0.32322542  0.44285446  0.18893647     0.77000
O506        O  0.32171220  0.42769978  0.15254709    -0.59100
O507        O  0.36136675  0.48971372  0.17189730    -0.57500
O508        O  0.28476596  0.43245645  0.16220469    -0.57500
O509        O  0.31551690  0.45441464  0.18550331    -0.56700
O510        O  0.58216614  0.69349647  0.15496597    -0.57900
C511        C  0.52857023  0.65195276  0.15986033     0.74700
O512        O  0.59525592  0.65725905  0.14866215    -0.59100
C513        C  0.60083712  0.70512524  0.15995962     0.74700
C514        C  0.57078363  0.64604608  0.18712058     0.77100
Cd515      Cd  0.57169657  0.65801566  0.16361096     1.37500
O516        O  0.53472167  0.64010475  0.15503339    -0.57900
O517        O  0.58899751  0.65573529  0.18166990    -0.56700
C518        C  0.58039564  0.63859726  0.14452541     0.77000
O519        O  0.55320011  0.63956660  0.18141648    -0.59100
O520        O  0.54277238  0.66739648  0.16629043    -0.57500
O521        O  0.60610155  0.69489905  0.16680161    -0.57500
O522        O  0.56307294  0.62679301  0.15046290    -0.56700
C523        C  0.74447263  0.97410431  0.35922892     0.86400
C524        C  0.74474694  0.97655964  0.37209531    -0.53900
C525        C  0.76452132  0.98197495  0.37715144     0.09300
C526        C  0.78248380  0.98471225  0.36885706     0.20300
C527        C  0.76500229  0.99684890  0.35530769    -0.54600
C528        C  0.78502748  0.00259722  0.36041056     0.09400
C529        C  0.75146014  0.95709557  0.35728403    -0.54100
C530        C  0.77106044  0.96221033  0.36241494     0.10000
H531        H  0.73034531  0.97390336  0.37680676     0.14500
H532        H  0.79841046  0.98901001  0.37303027     0.00200
H533        H  0.76389354  0.00779323  0.34932604     0.14800
H534        H  0.74068687  0.94136687  0.35288362     0.14600
C535        C  0.22431844  0.97933960  0.35308809     0.86400
C536        C  0.22595930  0.00146865  0.34982296    -0.53900
C537        C  0.21114203  0.00532531  0.35534464     0.09300
C538        C  0.19545705  0.98591401  0.36342358     0.20300
C539        C  0.22679496  0.98071276  0.36592462    -0.54600
C540        C  0.21191488  0.98431357  0.37138595     0.09400
C541        C  0.19968405  0.96117311  0.35091307    -0.54100
C542        C  0.18439135  0.96409409  0.35634184     0.10000
H543        H  0.23796751  0.01333662  0.34387260     0.14500
H544        H  0.18302692  0.98821625  0.36787762     0.00200
H545        H  0.23990995  0.97980448  0.37024422     0.14800
H546        H  0.19479844  0.94640245  0.34586566     0.14600
C547        C  0.21098388  0.18435776  0.36257861     0.86400
C548        C  0.21867891  0.19319700  0.37455306    -0.53900
C549        C  0.21779821  0.21152921  0.37730635     0.09300
C550        C  0.20912197  0.21952232  0.36764276     0.20300
C551        C  0.18749545  0.18070855  0.36143698    -0.54600
C552        C  0.18635806  0.19891396  0.36408382     0.09400
C553        C  0.22605752  0.20515294  0.35509534    -0.54100
C554        C  0.22498636  0.22366120  0.35774467     0.10000
H555        H  0.22502535  0.18577551  0.38024633     0.14500
H556        H  0.20801884  0.23417046  0.36990377     0.00200
H557        H  0.17286814  0.16483684  0.35877430     0.14800
H558        H  0.23638160  0.20535400  0.34832688     0.14600
C559        C  0.99766921  0.22748814  0.35810984     0.86400
C560        C  0.97565595  0.20526194  0.35524625    -0.53900
C561        C  0.97162097  0.18719952  0.36163992     0.09300
C562        C  0.99048720  0.19337250  0.37037757     0.20300
C563        C  0.99633709  0.23064463  0.37081886    -0.54600
C564        C  0.99230152  0.21285253  0.37739584     0.09400
C565        C  0.01608946  0.22211819  0.35731811    -0.54100
C566        C  0.01253821  0.20426779  0.36356692     0.10000
H567        H  0.96438395  0.20407111  0.34865672     0.14500
H568        H  0.98744491  0.17885122  0.37540798     0.00200
H569        H  0.99961693  0.24629526  0.37430351     0.14800
H570        H  0.03153954  0.23258442  0.35271610     0.14600
C571        C  0.98956980  0.73959705  0.35689947     0.86400
C572        C  0.99157054  0.73698495  0.36956279    -0.53900
C573        C  0.98915742  0.75142768  0.37612003     0.09300
C574        C  0.98454458  0.76725215  0.36936014     0.20300
C575        C  0.96646627  0.73714384  0.35550451    -0.54600
C576        C  0.96351063  0.75147535  0.36205694     0.09400
C577        C  0.00669879  0.76454604  0.35454692    -0.54100
C578        C  0.00455505  0.77920005  0.36113605     0.10000
H579        H  0.99468795  0.72461696  0.37303653     0.14500
H580        H  0.98272820  0.77900241  0.37474650     0.00200
H581        H  0.95358873  0.72536074  0.34979279     0.14800
H582        H  0.02041208  0.77002690  0.34866786     0.14600
C583        C  0.79010035  0.76357306  0.36905686     0.86400
C584        C  0.76932378  0.74842537  0.36145536    -0.53900
C585        C  0.75087243  0.74977394  0.36376960     0.09300
C586        C  0.75519825  0.76642391  0.37329860     0.20300
C587        C  0.79432393  0.78730271  0.36756506    -0.54600
C588        C  0.77610975  0.78884362  0.36972447     0.09400
C589        C  0.78084184  0.75665180  0.38104055    -0.54100
C590        C  0.76270776  0.75821217  0.38331762     0.10000
H591        H  0.76878207  0.73713538  0.35512813     0.14500
H592        H  0.74066625  0.76795978  0.37521316     0.00200
H593        H  0.81032766  0.80156637  0.36483311     0.14800
H594        H  0.78824586  0.75115156  0.38724374     0.14600
C595        C  0.51809869  0.87078095  0.30476933     0.86400
C596        C  0.51526365  0.84744500  0.30560430    -0.53900
C597        C  0.53390824  0.84715696  0.30261330     0.09300
C598        C  0.55375253  0.87037392  0.29898544     0.20300
C599        C  0.53923268  0.88602674  0.31212671    -0.54600
C600        C  0.55805665  0.88599703  0.30902288     0.09400
C601        C  0.52594858  0.87852817  0.29269753    -0.54100
C602        C  0.54447253  0.87827408  0.28960673     0.10000
H603        H  0.50024478  0.83265690  0.30880333     0.14500
H604        H  0.56879421  0.87024735  0.29637548     0.00200
H605        H  0.53936155  0.89605010  0.31906396     0.14800
H606        H  0.51726655  0.88350295  0.28700854     0.14600
C607        C  0.31248585  0.88415667  0.30747876     0.86400
C608        C  0.33413442  0.88468247  0.31074110    -0.53900
C609        C  0.33667632  0.86877047  0.30542582     0.09300
C610        C  0.31686730  0.85371150  0.29733168     0.20300
C611        C  0.31381776  0.88623367  0.29455139    -0.54600
C612        C  0.31608333  0.87034859  0.28923013     0.09400
C613        C  0.29332952  0.85990063  0.30967894    -0.54100
C614        C  0.29529879  0.84389606  0.30437612     0.10000
H615        H  0.34631029  0.89670346  0.31669209     0.14500
H616        H  0.31815079  0.84057060  0.29295853     0.00200
H617        H  0.31427132  0.89967176  0.28990801     0.14800
H618        H  0.27881159  0.85579331  0.31474254     0.14600
C619        C  0.57023957  0.66166900  0.30947920     0.86400
C620        C  0.54795828  0.64028342  0.31312795    -0.53900
C621        C  0.52941344  0.63603227  0.30695246     0.09300
C622        C  0.53517667  0.65411231  0.29783688     0.20300
C623        C  0.57157780  0.65793551  0.29689698    -0.54600
C624        C  0.55361851  0.65440163  0.29067976     0.09400
C625        C  0.56550765  0.68048597  0.31011148    -0.54100
C626        C  0.54743455  0.67693208  0.30404114     0.10000
H627        H  0.54693644  0.62921412  0.31973423     0.14500
H628        H  0.52067962  0.65138396  0.29276986     0.00200
H629        H  0.58579432  0.65812826  0.29324296     0.14800
H630        H  0.57606501  0.69575710  0.31490552     0.14600
C631        C  0.09605637  0.44614690  0.29840908     0.86400
C632        C  0.08219343  0.42577984  0.30633112    -0.53900
C633        C  0.08545485  0.40836003  0.30451192     0.09300
C634        C  0.10198683  0.41292551  0.29483904     0.20300
C635        C  0.12040329  0.45222668  0.30003640    -0.54600
C636        C  0.12367902  0.43504534  0.29818445     0.09400
C637        C  0.08929162  0.43587692  0.28661229    -0.54100
C638        C  0.09217457  0.41848319  0.28466400     0.10000
H639        H  0.07131095  0.42519001  0.31290218     0.14500
H640        H  0.10451434  0.39890326  0.29321807     0.00200
H641        H  0.13396695  0.46886906  0.30256331     0.14800
H642        H  0.08265605  0.44197287  0.28029160     0.14600
C643        C  0.07531785  0.64830071  0.30541540     0.86400
C644        C  0.07192190  0.64749307  0.29267913    -0.53900
C645        C  0.08562996  0.64323930  0.28660054     0.09300
C646        C  0.10167904  0.63983484  0.29398078     0.20300
C647        C  0.07216812  0.62530535  0.30821903    -0.54600
C648        C  0.08598485  0.62056181  0.30222852     0.09400
C649        C  0.10048671  0.66519205  0.30730078    -0.54100
C650        C  0.11443553  0.66127586  0.30125676     0.10000
H651        H  0.05932906  0.64989443  0.28883105     0.14500
H652        H  0.11336567  0.63714447  0.28908260     0.00200
H653        H  0.05980190  0.61368802  0.31413795     0.14800
H654        H  0.10672060  0.67999249  0.31254118     0.14600
C655        C  0.31249028  0.41211294  0.31114944     0.86400
C656        C  0.31419901  0.41064494  0.29835722    -0.53900
C657        C  0.32021018  0.42992870  0.29268841     0.09300
C658        C  0.32410961  0.44922024  0.30045351     0.20300
C659        C  0.33584169  0.43232146  0.31461873    -0.54600
C660        C  0.34217730  0.45191873  0.30895289     0.09400
C661        C  0.29653156  0.42043581  0.31282683    -0.54100
C662        C  0.30200232  0.43943456  0.30710196     0.10000
H663        H  0.31102122  0.39549496  0.29420714     0.14500
H664        H  0.32865924  0.46480985  0.29591670     0.00200
H665        H  0.34662732  0.43130434  0.32077179     0.14800
H666        H  0.28093282  0.41071548  0.31744686     0.14600
C667        C  0.14580806  0.43745617  0.30024388    -0.03300
C668        C  0.15826166  0.44850719  0.30993382    -0.05900
C669        C  0.17926895  0.45136578  0.31189547    -0.21000
C670        C  0.18865489  0.44369230  0.30412909     0.24700
C671        C  0.17607716  0.43234883  0.29446520    -0.18500
C672        C  0.15478719  0.42913003  0.29260398    -0.08500
C673        C  0.21091296  0.44675045  0.30679483    -0.18800
C674        C  0.22519374  0.44732403  0.29904992    -0.23600
C675        C  0.24679229  0.44887707  0.30184820     0.26800
C676        C  0.26260095  0.45406841  0.29330957    -0.20400
C677        C  0.28161478  0.45278137  0.29522009    -0.10000
C678        C  0.28520537  0.44614627  0.30572662    -0.10600
C679        C  0.27019331  0.44240084  0.31445747    -0.03500
C680        C  0.25118242  0.44354344  0.31254599    -0.18600
H681        H  0.15160910  0.45476323  0.31607657     0.10500
H682        H  0.18832663  0.45979243  0.31950144     0.10600
H683        H  0.18240191  0.42558003  0.28844470     0.10200
H684        H  0.14552916  0.42047310  0.28510129     0.11300
H685        H  0.21587531  0.44938454  0.31554847     0.11400
H686        H  0.22097792  0.44663918  0.29023410     0.13300
H687        H  0.25976576  0.45826498  0.28498722     0.09900
H688        H  0.29264708  0.45555129  0.28826598     0.11900
H689        H  0.27256740  0.43750933  0.32269962     0.08600
H690        H  0.23951506  0.43908358  0.31937805     0.11300
C691        C  0.08533730  0.59872345  0.30320815    -0.03300
C692        C  0.07550310  0.58420691  0.31247150    -0.05900
C693        C  0.07483896  0.56387155  0.31316432    -0.21000
C694        C  0.08399388  0.55724364  0.30467493     0.24700
C695        C  0.09383521  0.57177281  0.29543578    -0.18500
C696        C  0.09451230  0.59201477  0.29475916    -0.08500
C697        C  0.08310025  0.53537337  0.30587095    -0.18800
C698        C  0.09196476  0.52772101  0.29838023    -0.23600
C699        C  0.09245196  0.50667337  0.29934375     0.26800
C700        C  0.10653850  0.50429023  0.29196252    -0.20400
C701        C  0.10753667  0.48501182  0.29198737    -0.10000
C702        C  0.09438896  0.46705785  0.29935665    -0.10600
C703        C  0.08026895  0.46935988  0.30688217    -0.03500
C704        C  0.07931062  0.48894099  0.30687654    -0.18600
H705        H  0.06851115  0.58854285  0.31932947     0.10500
H706        H  0.06718868  0.55329589  0.32044045     0.10600
H707        H  0.10113169  0.56789575  0.28856833     0.10200
H708        H  0.10215762  0.60212475  0.28741877     0.11300
H709        H  0.07527086  0.52557693  0.31336428     0.11400
H710        H  0.10022171  0.53770478  0.29103395     0.13300
H711        H  0.11689434  0.51747259  0.28603901     0.09900
H712        H  0.11859402  0.48399021  0.28606139     0.11900
H713        H  0.06972952  0.45611109  0.31268605     0.08600
H714        H  0.06798779  0.48987737  0.31262235     0.11300
C715        C  0.50628833  0.61520968  0.30821163    -0.03300
C716        C  0.48702370  0.61565071  0.30556008    -0.05900
C717        C  0.46546549  0.59613425  0.30611644    -0.21000
C718        C  0.46227192  0.57535730  0.30927067     0.24700
C719        C  0.48153824  0.57488816  0.31209957    -0.18500
C720        C  0.50318402  0.59452069  0.31157718    -0.08500
C721        C  0.43857716  0.55506535  0.30952848    -0.18800
C722        C  0.43281215  0.53344362  0.31073238    -0.23600
C723        C  0.40908437  0.51311602  0.31061762     0.26800
C724        C  0.40584537  0.49182708  0.31248400    -0.20400
C725        C  0.38429537  0.47219311  0.31219524    -0.10000
C726        C  0.36510887  0.47309387  0.30998402    -0.10600
C727        C  0.36822381  0.49435089  0.30819317    -0.03500
C728        C  0.38981056  0.51405328  0.30851997    -0.18600
H729        H  0.48848003  0.63115714  0.30311017     0.10500
H730        H  0.45113870  0.59729969  0.30397256     0.10600
H731        H  0.48015372  0.55952311  0.31474529     0.10200
H732        H  0.51753153  0.59332123  0.31357898     0.11300
H733        H  0.42535603  0.55842381  0.30842559     0.11400
H734        H  0.44609317  0.53011646  0.31171129     0.13300
H735        H  0.42014929  0.49029850  0.31407294     0.09900
H736        H  0.38280124  0.45621668  0.31340851     0.11900
H737        H  0.35392499  0.49585013  0.30657626     0.08600
H738        H  0.39109175  0.52980871  0.30699885     0.11300
C739        C  0.27703579  0.81967493  0.30487178    -0.03300
C740        C  0.26634704  0.81018928  0.31509623    -0.05900
C741        C  0.24719819  0.78851360  0.31549563    -0.21000
C742        C  0.23804308  0.77562659  0.30569803     0.24700
C743        C  0.24919620  0.78482550  0.29545390    -0.18500
C744        C  0.26858842  0.80660688  0.29507806    -0.08500
C745        C  0.21610044  0.75361859  0.30666284    -0.18800
C746        C  0.20669729  0.73737398  0.29871420    -0.23600
C747        C  0.18390953  0.71620616  0.29984177     0.26800
C748        C  0.17291866  0.70342865  0.29018895    -0.20400
C749        C  0.15081259  0.68465627  0.29071227    -0.10000
C750        C  0.13915101  0.67822090  0.30092130    -0.10600
C751        C  0.15059155  0.69008868  0.31068081    -0.03500
C752        C  0.17265805  0.70868506  0.31018514    -0.18600
H753        H  0.27253485  0.81980162  0.32278885     0.10500
H754        H  0.23914059  0.78198980  0.32351524     0.10600
H755        H  0.24262032  0.77574340  0.28766677     0.10200
H756        H  0.27631421  0.81364905  0.28705638     0.11300
H757        H  0.20711800  0.75115835  0.31441296     0.11400
H758        H  0.21549322  0.73987510  0.29088188     0.13300
H759        H  0.18115215  0.70848847  0.28212022     0.09900
H760        H  0.14245123  0.67596363  0.28303152     0.11900
H761        H  0.14222803  0.68526944  0.31872387     0.08600
H762        H  0.18055082  0.71709671  0.31796283     0.11300
C763        C  0.49679904  0.87126626  0.30735147    -0.03300
C764        C  0.49842636  0.89141679  0.31043098    -0.05900
C765        C  0.47916806  0.89267303  0.31140844    -0.21000
C766        C  0.45749674  0.87403869  0.30908230     0.24700
C767        C  0.45580219  0.85390916  0.30586081    -0.18500
C768        C  0.47507214  0.85267222  0.30487634    -0.08500
C769        C  0.43755630  0.87673949  0.30993144    -0.18800
C770        C  0.41609042  0.86106233  0.30686484    -0.23600
C771        C  0.39616190  0.86379404  0.30730675     0.26800
C772        C  0.37467277  0.84499111  0.30490144    -0.20400
C773        C  0.35554492  0.84651081  0.30462025    -0.10000
C774        C  0.35711124  0.86699299  0.30665711    -0.10600
C775        C  0.37853808  0.88579926  0.30931539    -0.03500
C776        C  0.39775677  0.88426566  0.30963109    -0.18600
H777        H  0.51470874  0.90650989  0.31184305     0.10500
H778        H  0.48132033  0.90855471  0.31377719     0.10600
H779        H  0.43975083  0.83900848  0.30390264     0.10200
H780        H  0.47282078  0.83714577  0.30182691     0.11300
H781        H  0.44106677  0.89269173  0.31314067     0.11400
H782        H  0.41254804  0.84507637  0.30371035     0.13300
H783        H  0.37262075  0.82890597  0.30313703     0.09900
H784        H  0.33947571  0.83144573  0.30281855     0.11900
H785        H  0.38067520  0.90198370  0.31081817     0.08600
H786        H  0.41378723  0.89933152  0.31143948     0.11300
C787        C  0.53549176  0.82679911  0.30341526    -0.03300
C788        C  0.55606321  0.82913177  0.30619085    -0.05900
C789        C  0.55800505  0.81039163  0.30680088    -0.21000
C790        C  0.53949368  0.78864591  0.30465660     0.24700
C791        C  0.51871477  0.78617742  0.30200814    -0.18500
C792        C  0.51676310  0.80504048  0.30142656    -0.08500
C793        C  0.54318878  0.76954439  0.30520198    -0.18800
C794        C  0.52785111  0.74778077  0.30270296    -0.23600
C795        C  0.53309623  0.72969821  0.30279764     0.26800
C796        C  0.51545728  0.70697920  0.30335524    -0.20400
C797        C  0.51986195  0.68967438  0.30344964    -0.10000
C798        C  0.54204753  0.69473911  0.30304013    -0.10600
C799        C  0.55959348  0.71736924  0.30212285    -0.03500
C800        C  0.55523271  0.73456026  0.30193569    -0.18600
H801        H  0.57073583  0.84546800  0.30807096     0.10500
H802        H  0.57421309  0.81297463  0.30893401     0.10600
H803        H  0.50391827  0.76986679  0.30033062     0.10200
H804        H  0.50066090  0.80260821  0.29921907     0.11300
H805        H  0.55984603  0.77399004  0.30782643     0.11400
H806        H  0.51078680  0.74274058  0.30058747     0.13300
H807        H  0.49820252  0.70260721  0.30386207     0.09900
H808        H  0.50599952  0.67243365  0.30415718     0.11900
H809        H  0.57686176  0.72183419  0.30147074     0.08600
H810        H  0.56935215  0.75156078  0.30093636     0.11300
C811        C  0.72829177  0.73591679  0.35817305    -0.03300
C812        C  0.70856886  0.72966944  0.36415818    -0.05900
C813        C  0.68739679  0.71750302  0.35900168    -0.21000
C814        C  0.68512345  0.71109378  0.34769554     0.24700
C815        C  0.70479722  0.71684987  0.34172452    -0.18500
C816        C  0.72607629  0.72911855  0.34690285    -0.08500
C817        C  0.66197950  0.69837997  0.34260413    -0.18800
C818        C  0.65786761  0.69689541  0.33147400    -0.23600
C819        C  0.63496768  0.68665337  0.32634761     0.26800
C820        C  0.63328041  0.69507929  0.31601451    -0.20400
C821        C  0.61247410  0.68672759  0.31083530    -0.10000
C822        C  0.59246868  0.66891800  0.31553375    -0.10600
C823        C  0.59408748  0.66009100  0.32586797    -0.03500
C824        C  0.61511717  0.66897302  0.33125572    -0.18600
H825        H  0.70932872  0.73387493  0.37293548     0.10500
H826        H  0.67267388  0.71317612  0.36389325     0.10600
H827        H  0.70394022  0.71181401  0.33308904     0.10200
H828        H  0.74081520  0.73356864  0.34201222     0.11300
H829        H  0.64780225  0.69139803  0.34829612     0.11400
H830        H  0.67196216  0.70541540  0.32577353     0.13300
H831        H  0.64815832  0.70867130  0.31201611     0.09900
H832        H  0.61199736  0.69441130  0.30305618     0.11900
H833        H  0.57924249  0.64678408  0.32995897     0.08600
H834        H  0.61580862  0.66186205  0.33917686     0.11300
C835        C  0.94182425  0.75120894  0.36225153    -0.03300
C836        C  0.92110768  0.73168709  0.35937301    -0.05900
C837        C  0.90101687  0.73150543  0.35929376    -0.21000
C838        C  0.90068783  0.75068121  0.36221372     0.24700
C839        C  0.92134547  0.77020265  0.36521662    -0.18500
C840        C  0.94152364  0.77041588  0.36524657    -0.08500
C841        C  0.87860778  0.74955573  0.36170333    -0.18800
C842        C  0.87476990  0.76459902  0.36658059    -0.23600
C843        C  0.85268809  0.76342424  0.36657700     0.26800
C844        C  0.85004229  0.77692062  0.37427528    -0.20400
C845        C  0.83010504  0.77684587  0.37477190    -0.10000
C846        C  0.81179917  0.76328458  0.36757662    -0.10600
C847        C  0.81450073  0.74996963  0.35965380    -0.03500
C848        C  0.83464705  0.75003723  0.35916263    -0.18600
H849        H  0.92021705  0.71629642  0.35726260     0.10500
H850        H  0.88555051  0.71615097  0.35696603     0.10600
H851        H  0.92224394  0.78559238  0.36730325     0.10200
H852        H  0.95697823  0.78591766  0.36735243     0.11300
H853        H  0.86474367  0.73513043  0.35748445     0.11400
H854        H  0.88826584  0.77820819  0.37138854     0.13300
H855        H  0.86350078  0.78756955  0.38006402     0.09900
H856        H  0.82887102  0.78739958  0.38095251     0.11900
H857        H  0.80123030  0.73939753  0.35381799     0.08600
H858        H  0.83602529  0.73974481  0.35290088     0.11300
C859        C  0.99458785  0.72406548  0.35018406    -0.03300
C860        C  0.97918467  0.70704245  0.34279267    -0.05900
C861        C  0.98478019  0.69300240  0.33725521    -0.21000
C862        C  0.00593208  0.69573082  0.33880644     0.24700
C863        C  0.02122146  0.71257269  0.34620178    -0.18500
C864        C  0.01566317  0.72646983  0.35173900    -0.08500
C865        C  0.01188070  0.68097159  0.33272258    -0.18800
C866        C  0.03299758  0.68890178  0.32915463    -0.23600
C867        C  0.04033338  0.67605337  0.32247334     0.26800
C868        C  0.05599599  0.68758407  0.31398350    -0.20400
C869        C  0.06605582  0.67782998  0.30840417    -0.10000
C870        C  0.06142347  0.65634487  0.31130594    -0.10600
C871        C  0.04500350  0.64426660  0.31959615    -0.03500
C872        C  0.03442777  0.65402317  0.32508644    -0.18600
H873        H  0.96275700  0.70422259  0.34124023     0.10500
H874        H  0.97262230  0.68012171  0.33163023     0.10600
H875        H  0.03745835  0.71486100  0.34787302     0.10200
H876        H  0.02790805  0.73914869  0.35741488     0.11300
H877        H  0.99859377  0.66398134  0.33052119     0.11400
H878        H  0.04553672  0.70660594  0.33038218     0.13300
H879        H  0.06087406  0.70453718  0.31179608     0.09900
H880        H  0.07832223  0.68757630  0.30199008     0.11900
H881        H  0.04063901  0.62765436  0.32206254     0.08600
H882        H  0.02251026  0.64482157  0.33170915     0.11300
C883        C  0.00243298  0.24776611  0.35081367    -0.03300
C884        C  0.99578171  0.26256863  0.35422183    -0.05900
C885        C  0.00283520  0.28259461  0.34838364    -0.21000
C886        C  0.01664640  0.28850176  0.33889993     0.24700
C887        C  0.02175507  0.27292779  0.33488949    -0.18500
C888        C  0.01448770  0.25276823  0.34065500    -0.08500
C889        C  0.02505920  0.31078202  0.33336071    -0.18800
C890        C  0.04463613  0.32208022  0.32764447    -0.23600
C891        C  0.05453908  0.34493124  0.32246576     0.26800
C892        C  0.07709495  0.35630043  0.31903977    -0.20400
C893        C  0.08709402  0.37703978  0.31357090    -0.10000
C894        C  0.07485521  0.38715689  0.31127195    -0.10600
C895        C  0.05244627  0.37625301  0.31497898    -0.03500
C896        C  0.04233871  0.35532781  0.32047063    -0.18600
H897        H  0.98532833  0.25893962  0.36152517     0.10500
H898        H  0.99793117  0.29382372  0.35147995     0.10600
H899        H  0.03130884  0.27619367  0.32726543     0.10200
H900        H  0.01876017  0.24130710  0.33721710     0.11300
H901        H  0.01558979  0.31867445  0.33476299     0.11400
H902        H  0.05469574  0.31460634  0.32709487     0.13300
H903        H  0.08707745  0.34897514  0.32050567     0.09900
H904        H  0.10452082  0.38513971  0.31109940     0.11900
H905        H  0.04248618  0.38351069  0.31328465     0.08600
H906        H  0.02487508  0.34717253  0.32282534     0.11300
C907        C  0.16514696  0.19866763  0.36302407    -0.03300
C908        C  0.15110987  0.18848046  0.35366749    -0.05900
C909        C  0.13069931  0.18729401  0.35273620    -0.21000
C910        C  0.12355840  0.19587563  0.36121571     0.24700
C911        C  0.13780919  0.20651442  0.37051774    -0.18500
C912        C  0.15850392  0.20801051  0.37136342    -0.08500
C913        C  0.10171602  0.19429860  0.35967504    -0.18800
C914        C  0.08920235  0.19466431  0.36812646    -0.23600
C915        C  0.06789109  0.19419690  0.36633530     0.26800
C916        C  0.05302929  0.18884467  0.37535048    -0.20400
C917        C  0.03419081  0.19072056  0.37431327    -0.10000
C918        C  0.02988486  0.19815467  0.36424325    -0.10600
C919        C  0.04401271  0.20217985  0.35503758    -0.03500
C920        C  0.06285296  0.20050102  0.35608439    -0.18600
H921        H  0.15600779  0.18151254  0.34700969     0.10500
H922        H  0.12030276  0.17939138  0.34538929     0.10600
H923        H  0.13321246  0.21395602  0.37705354     0.10200
H924        H  0.16909339  0.21604342  0.37863366     0.11300
H925        H  0.09537059  0.19177711  0.35115586     0.11400
H926        H  0.09457564  0.19511276  0.37671903     0.13300
H927        H  0.05640269  0.18388510  0.38334413     0.09900
H928        H  0.02378699  0.18752234  0.38157864     0.11900
H929        H  0.04097558  0.20743314  0.34705113     0.08600
H930        H  0.07384842  0.20517346  0.34893625     0.11300
C931        C  0.23787686  0.24591209  0.35192121    -0.03300
C932        C  0.25985110  0.25459199  0.34800830    -0.05900
C933        C  0.27236476  0.27627145  0.34340097    -0.21000
C934        C  0.26314130  0.28968820  0.34241313     0.24700
C935        C  0.24105070  0.28087671  0.34622733    -0.18500
C936        C  0.22861770  0.25930472  0.35086493    -0.08500
C937        C  0.27707158  0.31288905  0.33764308    -0.18800
C938        C  0.26799953  0.32317719  0.33231606    -0.23600
C939        C  0.28104624  0.34582126  0.32694625     0.26800
C940        C  0.27057384  0.35050267  0.31832435    -0.20400
C941        C  0.28131386  0.37155772  0.31324411    -0.10000
C942        C  0.30283009  0.38906260  0.31672885    -0.10600
C943        C  0.31352581  0.38441803  0.32538093    -0.03500
C944        C  0.30276210  0.36298422  0.33040978    -0.18600
H945        H  0.26763331  0.24489968  0.34880661     0.10500
H946        H  0.28935437  0.28260497  0.34060248     0.10600
H947        H  0.23341779  0.29074764  0.34588663     0.10200
H948        H  0.21165963  0.25314515  0.35363528     0.11300
H949        H  0.29522380  0.32108451  0.33796692     0.11400
H950        H  0.24990222  0.31395641  0.33114710     0.13300
H951        H  0.25386519  0.33775549  0.31548398     0.09900
H952        H  0.27248383  0.37438805  0.30663555     0.11900
H953        H  0.32994564  0.39719972  0.32843242     0.08600
H954        H  0.31120218  0.36011529  0.33719001     0.11300
C955        C  0.24013804  0.97327099  0.34749114    -0.03300
C956        C  0.25640163  0.98673643  0.33940009    -0.05900
C957        C  0.26912392  0.97934525  0.33404310    -0.21000
C958        C  0.26622014  0.95844722  0.33663348     0.24700
C959        C  0.25040980  0.94523606  0.34489543    -0.18500
C960        C  0.23776512  0.95260856  0.35025812    -0.08500
C961        C  0.27863523  0.95028587  0.32999852    -0.18800
C962        C  0.28222704  0.93413739  0.33353350    -0.23600
C963        C  0.29272519  0.92432067  0.32658226     0.26800
C964        C  0.30102518  0.91234969  0.33193026    -0.20400
C965        C  0.30865481  0.90074710  0.32571760    -0.10000
C966        C  0.30821779  0.90059950  0.31390119    -0.10600
C967        C  0.30030703  0.91309275  0.30856734    -0.03500
C968        C  0.29278431  0.92477969  0.31479263    -0.18600
H969        H  0.25929436  0.00281445  0.33695999     0.10500
H970        H  0.28113315  0.98993097  0.32770983     0.10600
H971        H  0.24711272  0.92880712  0.34700461     0.10200
H972        H  0.22548571  0.94174230  0.35642914     0.11300
H973        H  0.28519353  0.95813487  0.32192513     0.11400
H974        H  0.27738381  0.92771850  0.34199404     0.13300
H975        H  0.30101714  0.91141781  0.34099377     0.09900
H976        H  0.31403652  0.89100009  0.33018573     0.11900
H977        H  0.29851792  0.91303187  0.29959197     0.08600
H978        H  0.28591836  0.93314574  0.31028298     0.11300
C979        C  0.21011111  0.16222411  0.36081332    -0.03300
C980        C  0.19620225  0.14419163  0.36801140    -0.05900
C981        C  0.19455508  0.12358311  0.36717227    -0.21000
C982        C  0.20679720  0.11998821  0.35912895     0.24700
C983        C  0.22067956  0.13782362  0.35176607    -0.18500
C984        C  0.22231754  0.15869951  0.35259763    -0.08500
C985        C  0.20385146  0.09718992  0.35878761    -0.18800
C986        C  0.21776478  0.09219423  0.35363870    -0.23600
C987        C  0.21514045  0.06950941  0.35409416     0.26800
C988        C  0.23380159  0.06802831  0.35157379    -0.20400
C989        C  0.23243797  0.04741068  0.35191350    -0.10000
C990        C  0.21219581  0.02731725  0.35464156    -0.10600
C991        C  0.19337969  0.02871914  0.35707695    -0.03500
C992        C  0.19478371  0.04945502  0.35679040    -0.18600
H993        H  0.18649693  0.14612603  0.37442857     0.10500
H994        H  0.18364788  0.11034044  0.37294761     0.10600
H995        H  0.23009626  0.13571201  0.34527860     0.10200
H996        H  0.23311197  0.17185653  0.34680507     0.11300
H997        H  0.19002750  0.08415541  0.36364163     0.11400
H998        H  0.23250468  0.10552495  0.34941190     0.13300
H999        H  0.24972816  0.08302529  0.34947929     0.09900
H1000       H  0.24757263  0.04746603  0.35025926     0.11900
H1001       H  0.17738975  0.01375583  0.35906006     0.08600
H1002       H  0.17974179  0.04952446  0.35851139     0.11300
C1003       C  0.15993604  0.94606487  0.35601801    -0.03300
C1004       C  0.15043140  0.93425066  0.34598171    -0.05900
C1005       C  0.12926117  0.91441672  0.34585134    -0.21000
C1006       C  0.11669908  0.90566943  0.35572108     0.24700
C1007       C  0.12555084  0.91819754  0.36572124    -0.18500
C1008       C  0.14696027  0.93824797  0.36583943    -0.08500
C1009       C  0.09541224  0.88291316  0.35501021    -0.18800
C1010       C  0.08014379  0.87239096  0.36327670    -0.23600
C1011       C  0.05970612  0.84896977  0.36227145     0.26800
C1012       C  0.04766046  0.83785114  0.37202105    -0.20400
C1013       C  0.02918754  0.81559061  0.37160484    -0.10000
C1014       C  0.02222469  0.80376763  0.36140202    -0.10600
C1015       C  0.03367225  0.81508882  0.35158261    -0.03500
C1016       C  0.05201074  0.83735264  0.35197387    -0.18600
H1017       H  0.15982585  0.93991803  0.33823538     0.10500
H1018       H  0.12298171  0.90544975  0.33798683     0.10600
H1019       H  0.11657951  0.91222547  0.37354428     0.10200
H1020       H  0.15390232  0.94686902  0.37372529     0.11300
H1021       H  0.09274826  0.87420990  0.34713081     0.11400
H1022       H  0.08288747  0.88082029  0.37126584     0.13300
H1023       H  0.05291347  0.84623882  0.38007426     0.09900
H1024       H  0.02098118  0.80736239  0.37935892     0.11900
H1025       H  0.02853633  0.80663428  0.34354504     0.08600
H1026       H  0.05993200  0.84514603  0.34413195     0.11300
C1027       C  0.80671407  0.02492653  0.35894533    -0.03300
C1028       C  0.80663627  0.04458435  0.35695730    -0.05900
C1029       C  0.82680506  0.06562004  0.35633085    -0.21000
C1030       C  0.84781717  0.06787343  0.35769427     0.24700
C1031       C  0.84797230  0.04813888  0.35949846    -0.18500
C1032       C  0.82771786  0.02703077  0.36014074    -0.08500
C1033       C  0.86874864  0.09107423  0.35702572    -0.18800
C1034       C  0.88979325  0.09669467  0.36001702    -0.23600
C1035       C  0.91052800  0.12015366  0.35977132     0.26800
C1036       C  0.93127959  0.12328169  0.36305669    -0.20400
C1037       C  0.95100519  0.14476868  0.36342473     0.04400
C1038       C  0.95072244  0.16402201  0.36055607    -0.10600
C1039       C  0.93009351  0.16091324  0.35701347    -0.03500
C1040       C  0.91033956  0.13939843  0.35662367    -0.18600
H1041       H  0.79093086  0.04387271  0.35617960     0.10500
H1042       H  0.82592609  0.08033327  0.35491384     0.10600
H1043       H  0.86358804  0.04874348  0.36034788     0.10200
H1044       H  0.82857253  0.01230247  0.36149462     0.11300
H1045       H  0.86623085  0.10416568  0.35415714     0.11400
H1046       H  0.89215857  0.08359703  0.36308437     0.13300
H1047       H  0.93226159  0.10897780  0.36544314     0.09900
H1048       H  0.96650976  0.14616755  0.36591796     0.11900
H1049       H  0.92898010  0.17520723  0.35482133     0.08600
H1050       H  0.89504382  0.13823047  0.35400542     0.11300
C1051       C  0.77606905  0.80989348  0.36835402    -0.03300
C1052       C  0.75721304  0.80897324  0.36372308    -0.05900
C1053       C  0.75690645  0.82853698  0.36230876    -0.21000
C1054       C  0.77530197  0.84956810  0.36560386     0.24700
C1055       C  0.79424197  0.85053271  0.37029282    -0.18500
C1056       C  0.79462091  0.83089450  0.37160556    -0.08500
C1057       C  0.77409404  0.86986506  0.36354185    -0.18800
C1058       C  0.78764512  0.89020834  0.36832174    -0.23600
C1059       C  0.78502373  0.90964341  0.36623831     0.26800
C1060       C  0.79124663  0.92592259  0.37464372    -0.20400
C1061       C  0.78761111  0.94353627  0.37323308    -0.10000
C1062       C  0.77790895  0.94545611  0.36329790    -0.10600
C1063       C  0.77285006  0.92985574  0.35464176    -0.03500
C1064       C  0.77636647  0.91220084  0.35607769    -0.18600
H1065       H  0.74279383  0.79312374  0.36097245     0.10500
H1066       H  0.74216238  0.82720867  0.35858707     0.10600
H1067       H  0.80895531  0.86636071  0.37276443     0.10200
H1068       H  0.80935953  0.83210254  0.37524699     0.11300
H1069       H  0.76054814  0.86752591  0.35813156     0.11400
H1070       H  0.80001778  0.89242598  0.37451008     0.13300
H1071       H  0.79818195  0.92454088  0.38250740     0.09900
H1072       H  0.79147014  0.95500040  0.38014489     0.11900
H1073       H  0.76584291  0.93109175  0.34677640     0.08600
H1074       H  0.77222894  0.90057220  0.34921551     0.11300
C1075       C  0.58073166  0.89966026  0.31456374    -0.03300
C1076       C  0.60034340  0.90914366  0.30805161    -0.05900
C1077       C  0.62172256  0.92118066  0.31304640    -0.21000
C1078       C  0.62432310  0.92391708  0.32473940     0.24700
C1079       C  0.60467047  0.91463570  0.33130748    -0.18500
C1080       C  0.58316868  0.90275250  0.32626730    -0.08500
C1081       C  0.64778127  0.93681425  0.32956050    -0.18800
C1082       C  0.65314348  0.93505710  0.34026325    -0.23600
C1083       C  0.67676423  0.94620779  0.34477934     0.26800
C1084       C  0.68072316  0.93654196  0.35407482    -0.20400
C1085       C  0.70236984  0.94581028  0.35854474    -0.10000
C1086       C  0.72100120  0.96554778  0.35411252    -0.10600
C1087       C  0.71700741  0.97558530  0.34488354    -0.03500
C1088       C  0.69521709  0.96601223  0.34026437    -0.18600
H1089       H  0.59920446  0.90746490  0.29901409     0.10500
H1090       H  0.63637869  0.92822128  0.30770943     0.10600
H1091       H  0.60575900  0.91667783  0.34031758     0.10200
H1092       H  0.56844754  0.89561564  0.33154646     0.11300
H1093       H  0.66135615  0.94700133  0.32376316     0.11400
H1094       H  0.63976326  0.92350859  0.34584164     0.13300
H1095       H  0.66699585  0.92137533  0.35780451     0.09900
H1096       H  0.70462448  0.93735964  0.36553485     0.11900
H1097       H  0.73057517  0.99055485  0.34102027     0.08600
H1098       H  0.69289075  0.97428193  0.33322872     0.11300
C1099       C  0.56996905  0.64375970  0.19953602    -0.03300
C1100       C  0.58979461  0.65332294  0.20594205    -0.05900
C1101       C  0.58899184  0.65376988  0.21767968    -0.21000
C1102       C  0.56840610  0.64482965  0.22332826     0.24700
C1103       C  0.54849301  0.63459341  0.21689763    -0.18500
C1104       C  0.54931020  0.63413482  0.20517052    -0.08500
C1105       C  0.56871050  0.64675089  0.23584222    -0.18800
C1106       C  0.55108694  0.64304985  0.24215472    -0.23600
C1107       C  0.55216929  0.64614511  0.25459765     0.26800
C1108       C  0.53212527  0.63540421  0.26082033    -0.20400
C1109       C  0.53244378  0.63813678  0.27249356    -0.10000
C1110       C  0.55285137  0.65182151  0.27821561    -0.10600
C1111       C  0.57283276  0.66301972  0.27193856    -0.03500
C1112       C  0.57252611  0.66025356  0.26031876    -0.18600
H1113       H  0.60599806  0.66105656  0.20187599     0.10500
H1114       H  0.60462419  0.66164536  0.22236085     0.10600
H1115       H  0.53218372  0.62695840  0.22078376     0.10200
H1116       H  0.53370823  0.62668884  0.20048967     0.11300
H1117       H  0.58451378  0.65187686  0.23996921     0.11400
H1118       H  0.53505302  0.63747763  0.23819366     0.13300
H1119       H  0.51614842  0.62464617  0.25664213     0.09900
H1120       H  0.51675839  0.62918105  0.27703943     0.11900
H1121       H  0.58882103  0.67430782  0.27597666     0.08600
H1122       H  0.58827092  0.66965592  0.25587629     0.11300
C1123       C  0.32232691  0.43742298  0.20101974    -0.03300
C1124       C  0.32670585  0.42127208  0.20492213    -0.05900
C1125       C  0.32593458  0.41679367  0.21645111    -0.21000
C1126       C  0.32129358  0.42872605  0.22426989     0.24700
C1127       C  0.31654764  0.44457314  0.22030237    -0.18500
C1128       C  0.31704346  0.44882580  0.20884788    -0.08500
C1129       C  0.32089732  0.42412545  0.23648677    -0.18800
C1130       C  0.32676340  0.44021754  0.24429226    -0.23600
C1131       C  0.32580858  0.43649001  0.25660892     0.26800
C1132       C  0.33916879  0.45499453  0.26362093    -0.20400
C1133       C  0.33769512  0.45273388  0.27528145    -0.10000
C1134       C  0.32251484  0.43193891  0.28024550    -0.10600
C1135       C  0.30926400  0.41329065  0.27322156    -0.03500
C1136       C  0.31090118  0.41551859  0.26153154    -0.18600
H1137       H  0.33063122  0.41209081  0.19907940     0.10500
H1138       H  0.32933467  0.40426409  0.21928734     0.10600
H1139       H  0.31212855  0.45353347  0.22602006     0.10200
H1140       H  0.31343136  0.46126765  0.20612522     0.11300
H1141       H  0.31653457  0.40746683  0.23902997     0.11400
H1142       H  0.33324124  0.45731422  0.24154492     0.13300
H1143       H  0.35077194  0.47134766  0.26005210     0.09900
H1144       H  0.34855448  0.46734113  0.28037936     0.11900
H1145       H  0.29709246  0.39708440  0.27672692     0.08600
H1146       H  0.29990486  0.40100058  0.25641130     0.11300
C1147       C  0.50548131  0.64680512  0.15851573    -0.03300
C1148       C  0.49250849  0.63388612  0.14933273    -0.05900
C1149       C  0.46926569  0.62392755  0.14935828    -0.21000
C1150       C  0.45863905  0.62627232  0.15868548     0.24700
C1151       C  0.47179840  0.64120715  0.16731314    -0.18500
C1152       C  0.49517860  0.65157956  0.16717925    -0.08500
C1153       C  0.43436493  0.60968355  0.16007493    -0.18800
C1154       C  0.42678677  0.59800416  0.16968431    -0.23600
C1155       C  0.40722918  0.57460425  0.16992406     0.26800
C1156       C  0.40829187  0.55931834  0.17704205    -0.20400
C1157       C  0.39211541  0.53641703  0.17635098    -0.10000
C1158       C  0.37431170  0.52840435  0.16865614    -0.10600
C1159       C  0.37245956  0.54381550  0.16197983    -0.03500
C1160       C  0.38883766  0.56675095  0.16257145    -0.18600
H1161       H  0.50015039  0.63023555  0.14248397     0.10500
H1162       H  0.45943302  0.61259471  0.14259382     0.10600
H1163       H  0.46392282  0.64356957  0.17450503     0.10200
H1164       H  0.50490298  0.66166647  0.17430593     0.11300
H1165       H  0.42435335  0.60305813  0.15248100     0.11400
H1166       H  0.43789775  0.60360132  0.17694179     0.13300
H1167       H  0.42227678  0.56498017  0.18279560     0.09900
H1168       H  0.39375202  0.52494199  0.18171548     0.11900
H1169       H  0.35869664  0.53808338  0.15608146     0.08600
H1170       H  0.38729276  0.57819848  0.15715136     0.11300
C1171       C  0.03887660  0.35317307  0.20026024    -0.03300
C1172       C  0.02186424  0.35167836  0.20705776    -0.05900
C1173       C  0.02457636  0.35383277  0.21874111    -0.21000
C1174       C  0.04432655  0.35754412  0.22388623     0.24700
C1175       C  0.06026102  0.35668731  0.21714842    -0.18500
C1176       C  0.05762107  0.35469870  0.20547333    -0.08500
C1177       C  0.04820230  0.36370663  0.23606223    -0.18800
C1178       C  0.06875419  0.37488396  0.24097208    -0.23600
C1179       C  0.07321343  0.38413167  0.25262431     0.26800
C1180       C  0.09285088  0.38858294  0.25820737    -0.20400
C1181       C  0.09864860  0.39900357  0.26876739    -0.10000
C1182       C  0.08524320  0.40575947  0.27386642    -0.10600
C1183       C  0.06544322  0.40107330  0.26835556    -0.03500
C1184       C  0.05946012  0.39036618  0.25788810    -0.18600
H1185       H  0.00723114  0.35053487  0.20331012     0.10500
H1186       H  0.01178971  0.35397893  0.22370333     0.10600
H1187       H  0.07519787  0.35833462  0.22075207     0.10200
H1188       H  0.07088644  0.35558185  0.20047123     0.11300
H1189       H  0.03370952  0.36030765  0.24092530     0.11400
H1190       H  0.08333333  0.37823808  0.23622733     0.13300
H1191       H  0.10390115  0.38420691  0.25431479     0.09900
H1192       H  0.11402472  0.40246329  0.27274880     0.11900
H1193       H  0.05462196  0.40588109  0.27211264     0.08600
H1194       H  0.04451337  0.38781326  0.25379456     0.11300
C1195       C  0.11532899  0.41869397  0.15758371    -0.03300
C1196       C  0.13077462  0.43695733  0.16423682    -0.05900
C1197       C  0.15387329  0.44631482  0.16289510    -0.21000
C1198       C  0.16181288  0.43752418  0.15492064     0.24700
C1199       C  0.14635708  0.42063379  0.14758692    -0.18500
C1200       C  0.12335485  0.41119487  0.14898282    -0.08500
C1201       C  0.18595626  0.44508918  0.15503640    -0.18800
C1202       C  0.19305716  0.43147334  0.15193222    -0.23600
C1203       C  0.21618424  0.43661641  0.15385585     0.26800
C1204       C  0.21952980  0.41866382  0.15424735    -0.20400
C1205       C  0.24075299  0.42243397  0.15653503    -0.10000
C1206       C  0.25912746  0.44431034  0.15835506    -0.10600
C1207       C  0.25595703  0.46236873  0.15772423    -0.03500
C1208       C  0.23470522  0.45859734  0.15546499    -0.18600
H1209       H  0.12500975  0.44315422  0.17086880     0.10500
H1210       H  0.16548750  0.45959358  0.16851898     0.10600
H1211       H  0.15187442  0.41418708  0.14097207     0.10200
H1212       H  0.11180031  0.39744130  0.14356188     0.11300
H1213       H  0.19753672  0.46102332  0.15906199     0.11400
H1214       H  0.18089642  0.41472378  0.14888543     0.13300
H1215       H  0.20557212  0.40158355  0.15297060     0.09900
H1216       H  0.24275491  0.40822094  0.15690585     0.11900
H1217       H  0.26990734  0.47944240  0.15900740     0.08600
H1218       H  0.23298597  0.47294086  0.15491321     0.11300
C1219       C  0.08441379  0.64178414  0.27410805    -0.03300
C1220       C  0.08746058  0.62619969  0.26839361    -0.05900
C1221       C  0.08439948  0.62356282  0.25676272    -0.21000
C1222       C  0.07844173  0.63658878  0.25052229     0.24700
C1223       C  0.07581156  0.65253752  0.25621479    -0.18500
C1224       C  0.07885676  0.65513822  0.26784296    -0.08500
C1225       C  0.07422404  0.63225004  0.23824448    -0.18800
C1226       C  0.07359109  0.64645927  0.23085350    -0.23600
C1227       C  0.07005576  0.64164690  0.21860069     0.26800
C1228       C  0.07994267  0.65951946  0.21092933    -0.20400
C1229       C  0.07856410  0.65539672  0.19935954    -0.10000
C1230       C  0.06698112  0.63327399  0.19524807    -0.10600
C1231       C  0.05580239  0.61546808  0.20290403    -0.03500
C1232       C  0.05727711  0.61957992  0.21443507    -0.18600
H1233       H  0.09141160  0.61545012  0.27291657     0.10500
H1234       H  0.08642995  0.61105376  0.25263552     0.10600
H1235       H  0.07084170  0.66266793  0.25183168     0.10200
H1236       H  0.07664477  0.66753836  0.27194465     0.11300
H1237       H  0.07246894  0.61691586  0.23510594     0.11400
H1238       H  0.07735949  0.66277567  0.23363880     0.13300
H1239       H  0.08956151  0.67669687  0.21391326     0.09900
H1240       H  0.08731458  0.66947072  0.19367817     0.11900
H1241       H  0.04652733  0.59822681  0.20000878     0.08600
H1242       H  0.04863053  0.60541534  0.22006072     0.11300
C1243       C  0.01264880  0.41587287  0.16610895    -0.03300
C1244       C  0.99845865  0.41351556  0.15717107    -0.05900
C1245       C  0.99148548  0.42867985  0.15594531    -0.21000
C1246       C  0.99819253  0.44598336  0.16382128     0.24700
C1247       C  0.01071800  0.44703244  0.17324051    -0.18500
C1248       C  0.01823244  0.43234501  0.17428057    -0.08500
C1249       C  0.99529264  0.46499124  0.16178330    -0.18800
C1250       C  0.00053186  0.47539417  0.15179106    -0.23600
C1251       C  0.00978792  0.49975343  0.15114003     0.26800
C1252       C  0.03001199  0.51314400  0.14536957    -0.20400
C1253       C  0.04223754  0.53639646  0.14669181    -0.10000
C1254       C  0.03413724  0.54666332  0.15359824    -0.10600
C1255       C  0.01289443  0.53343443  0.15856282    -0.03500
C1256       C  0.00084728  0.51006953  0.15741704    -0.18600
H1257       H  0.99390444  0.40083073  0.15079071     0.10500
H1258       H  0.98162372  0.42743345  0.14866622     0.10600
H1259       H  0.01604292  0.46024805  0.17940542     0.10200
H1260       H  0.02895932  0.43426655  0.18129318     0.11300
H1261       H  0.99467210  0.47381450  0.16911008     0.11400
H1262       H  0.00366949  0.46769275  0.14473141     0.13300
H1263       H  0.03717140  0.50550800  0.14048069     0.09900
H1264       H  0.05842147  0.54626798  0.14263811     0.11900
H1265       H  0.00618660  0.54101657  0.16382476     0.08600
H1266       H  0.98509028  0.50003306  0.16181728     0.11300
C1267       C  0.31884238  0.86999414  0.27684747    -0.03300
C1268       C  0.33285271  0.86329827  0.27245124    -0.05900
C1269       C  0.33568587  0.86295591  0.26088172    -0.21000
C1270       C  0.32468491  0.86933972  0.25333333     0.24700
C1271       C  0.31060456  0.87610710  0.25772029    -0.18500
C1272       C  0.30777264  0.87644979  0.26935058    -0.08500
C1273       C  0.32840203  0.86821626  0.24107837    -0.18800
C1274       C  0.32078722  0.87540936  0.23269515    -0.23600
C1275       C  0.32481975  0.87316032  0.22061261     0.26800
C1276       C  0.30931724  0.87115572  0.21248507    -0.20400
C1277       C  0.31180946  0.86742141  0.20118137    -0.10000
C1278       C  0.33003700  0.86585821  0.19774508    -0.10600
C1279       C  0.34618035  0.86907330  0.20577806    -0.03500
C1280       C  0.34368942  0.87278534  0.21705052    -0.18600
H1281       H  0.34201504  0.85867399  0.27795303     0.10500
H1282       H  0.34669163  0.85773381  0.25781343     0.10600
H1283       H  0.30155219  0.88094137  0.25230033     0.10200
H1284       H  0.29664139  0.88146227  0.27246592     0.11300
H1285       H  0.33781591  0.86057516  0.23887948     0.11400
H1286       H  0.31049269  0.88220993  0.23456503     0.13300
H1287       H  0.29480535  0.87170585  0.21494610     0.09900
H1288       H  0.29908402  0.86503309  0.19520071     0.11900
H1289       H  0.36052787  0.86817096  0.20340067     0.08600
H1290       H  0.35655711  0.87523644  0.22293377     0.11300
C1291       C  0.14621743  0.63503744  0.16510091    -0.03300
C1292       C  0.15959212  0.64109368  0.15543875    -0.05900
C1293       C  0.18290583  0.65552096  0.15626889    -0.21000
C1294       C  0.19299476  0.66401285  0.16674453     0.24700
C1295       C  0.17994659  0.65544209  0.17648883    -0.18500
C1296       C  0.15667151  0.64113367  0.17566611    -0.08500
C1297       C  0.21577117  0.68449803  0.16718797    -0.18800
C1298       C  0.21962270  0.70181895  0.17369374    -0.23600
C1299       C  0.23928086  0.72486048  0.17241262     0.26800
C1300       C  0.23636788  0.74277726  0.17440026    -0.20400
C1301       C  0.25413476  0.76486555  0.17294583    -0.10000
C1302       C  0.27529106  0.76946973  0.16963328    -0.10600
C1303       C  0.27842320  0.75155145  0.16790580    -0.03500
C1304       C  0.26050245  0.72936464  0.16923063    -0.18600
H1305       H  0.15194559  0.63646021  0.14719045     0.10500
H1306       H  0.19272552  0.66175489  0.14866347     0.10600
H1307       H  0.18752203  0.66125787  0.18469216     0.10200
H1308       H  0.14676044  0.63634461  0.18325598     0.11300
H1309       H  0.22780897  0.68693575  0.16078358     0.11400
H1310       H  0.20629793  0.69980977  0.17912998     0.13300
H1311       H  0.22013131  0.73964888  0.17687824     0.09900
H1312       H  0.25127672  0.77833513  0.17438627     0.11900
H1313       H  0.29465115  0.75467402  0.16543337     0.08600
H1314       H  0.26329112  0.71583856  0.16785727     0.11300
C1315       C  0.55454287  0.88490436  0.27822111    -0.03300
C1316       C  0.56214811  0.87253903  0.27275590    -0.05900
C1317       C  0.57123509  0.87848972  0.26195950    -0.21000
C1318       C  0.57313400  0.89703155  0.25637459     0.24700
C1319       C  0.56588752  0.90969005  0.26198681    -0.18500
C1320       C  0.55654992  0.90355349  0.27273443    -0.08500
C1321       C  0.58263036  0.90231928  0.24476867    -0.18800
C1322       C  0.58143973  0.91660435  0.23765220    -0.23600
C1323       C  0.58843506  0.91923365  0.22567285     0.26800
C1324       C  0.57691387  0.92416388  0.21770941    -0.20400
C1325       C  0.58098636  0.92408247  0.20623342    -0.10000
C1326       C  0.59697861  0.91941313  0.20245636    -0.10600
C1327       C  0.60982888  0.91628653  0.21046924    -0.03500
C1328       C  0.60560041  0.91616540  0.22196012    -0.18600
H1329       H  0.56064874  0.85798288  0.27673969     0.10500
H1330       H  0.57664382  0.86838442  0.25790651     0.10600
H1331       H  0.56747325  0.92442522  0.25823361     0.10200
H1332       H  0.55116603  0.91362056  0.27683801     0.11300
H1333       H  0.58962054  0.89277417  0.24170772     0.11400
H1334       H  0.57298517  0.92501061  0.24022383     0.13300
H1335       H  0.56382800  0.92690524  0.22033901     0.09900
H1336       H  0.57076424  0.92650276  0.20030273     0.11900
H1337       H  0.62233166  0.91270361  0.20784785     0.08600
H1338       H  0.61539586  0.91313232  0.22787659     0.11300
C1339       C  0.38889977  0.83348242  0.16101924    -0.03300
C1340       C  0.40842030  0.85016340  0.15562257    -0.05900
C1341       C  0.42674762  0.84770991  0.15437924    -0.21000
C1342       C  0.42601103  0.82869030  0.15860013     0.24700
C1343       C  0.40629856  0.81183261  0.16385987    -0.18500
C1344       C  0.38796386  0.81425100  0.16505707    -0.08500
C1345       C  0.44633614  0.82747048  0.15753223    -0.18800
C1346       C  0.45069548  0.81459085  0.16406070    -0.23600
C1347       C  0.47352162  0.81852430  0.16454057     0.26800
C1348       C  0.48303928  0.81971410  0.17506579    -0.20400
C1349       C  0.50620174  0.82939792  0.17611706    -0.10000
C1350       C  0.51996954  0.83748352  0.16660594    -0.10600
C1351       C  0.51001744  0.83356515  0.15593829    -0.03500
C1352       C  0.48691649  0.82422753  0.15490954    -0.18600
H1353       H  0.40950075  0.86505234  0.15233906     0.10500
H1354       H  0.44169874  0.86089951  0.15024676     0.10600
H1355       H  0.40477630  0.79666437  0.16697416     0.10200
H1356       H  0.37302918  0.80103620  0.16918456     0.11300
H1357       H  0.45941163  0.83958501  0.15197273     0.11400
H1358       H  0.43890139  0.80396655  0.17046836     0.13300
H1359       H  0.47290747  0.81509496  0.18257280     0.09900
H1360       H  0.51349898  0.83203094  0.18442151     0.11900
H1361       H  0.52026623  0.83951696  0.14846358     0.08600
H1362       H  0.47978436  0.82282779  0.14665825     0.11300
C1363       C  0.62604697  0.85688375  0.17012829    -0.03300
C1364       C  0.64069875  0.85935168  0.16149881    -0.05900
C1365       C  0.64884912  0.84508097  0.16097516    -0.21000
C1366       C  0.64267073  0.82846502  0.16919079     0.24700
C1367       C  0.62969249  0.82745317  0.17832257    -0.18500
C1368       C  0.62118505  0.84133787  0.17871425    -0.08500
C1369       C  0.64674221  0.81007980  0.16784265    -0.18800
C1370       C  0.64419535  0.80020701  0.15782955    -0.23600
C1371       C  0.63723284  0.77639495  0.15702451     0.26800
C1372       C  0.62097237  0.76290417  0.14898308    -0.20400
C1373       C  0.60989976  0.73960418  0.14958257    -0.10000
C1374       C  0.61517372  0.72947128  0.15815621    -0.10600
C1375       C  0.63300532  0.74298692  0.16551687    -0.03500
C1376       C  0.64398170  0.76633305  0.16496763    -0.18600
H1377       H  0.64476418  0.87137209  0.15483436     0.10500
H1378       H  0.65922245  0.84646499  0.15395570     0.10600
H1379       H  0.62482286  0.81483898  0.18476875     0.10200
H1380       H  0.61015140  0.83938730  0.18553155     0.11300
H1381       H  0.64652967  0.80142094  0.17542775     0.11400
H1382       H  0.64208274  0.80778337  0.15036913     0.13300
H1383       H  0.61564863  0.77031029  0.14272379     0.09900
H1384       H  0.59647509  0.72952681  0.14367178     0.11900
H1385       H  0.63762945  0.73553601  0.17208271     0.08600
H1386       H  0.65698051  0.77639973  0.17106161     0.11300
C1387       C  0.99644518  0.73762780  0.46683468    -0.03300
C1388       C  0.01693906  0.75552412  0.46267734    -0.05900
C1389       C  0.02096829  0.75818297  0.45109191    -0.21000
C1390       C  0.00434146  0.74339160  0.44347007     0.24700
C1391       C  0.98451859  0.72469408  0.44766166    -0.18500
C1392       C  0.98070420  0.72175407  0.45920831    -0.08500
C1393       C  0.00752635  0.74796732  0.43120901    -0.18800
C1394       C  0.99044067  0.74457540  0.42452631    -0.23600
C1395       C  0.99221044  0.74860368  0.41220655     0.26800
C1396       C  0.97676546  0.75262818  0.40694287    -0.20400
C1397       C  0.97634316  0.75438488  0.39526390    -0.10000
C1398       C  0.99106114  0.75166840  0.38856186    -0.10600
C1399       C  0.00691097  0.74815669  0.39381648    -0.03500
C1400       C  0.00755808  0.74672578  0.40552024    -0.18600
H1401       H  0.02933749  0.76809904  0.46833552     0.10500
H1402       H  0.03652400  0.77253943  0.44806378     0.10600
H1403       H  0.97166415  0.71263794  0.44199505     0.10200
H1404       H  0.96468870  0.70787292  0.46211028     0.11300
H1405       H  0.02435104  0.75556717  0.42782357     0.11400
H1406       H  0.97431206  0.73913610  0.42833954     0.13300
H1407       H  0.96468641  0.75403413  0.41188887     0.09900
H1408       H  0.96387071  0.75694177  0.39145817     0.11900
H1409       H  0.01865870  0.74625180  0.38885736     0.08600
H1410       H  0.01945739  0.74327400  0.40925143     0.11300
C1411       C  0.69139490  0.70185659  0.46659318    -0.03300
C1412       C  0.69036250  0.68534116  0.45955192    -0.05900
C1413       C  0.69439039  0.68925824  0.44803152    -0.21000
C1414       C  0.69959529  0.70976158  0.44326788     0.24700
C1415       C  0.69848181  0.72539442  0.45015448    -0.18500
C1416       C  0.69452026  0.72149733  0.46168262    -0.08500
C1417       C  0.70737978  0.71448912  0.43135671    -0.18800
C1418       C  0.71865042  0.73518670  0.42672366    -0.23600
C1419       C  0.72893069  0.74001391  0.41533990     0.26800
C1420       C  0.73249200  0.75899024  0.40950233    -0.20400
C1421       C  0.74316697  0.76472887  0.39905116    -0.10000
C1422       C  0.75100551  0.75190161  0.39432459    -0.10600
C1423       C  0.74763598  0.73302219  0.40018488    -0.03500
C1424       C  0.73668073  0.72709141  0.41055337    -0.18600
H1425       H  0.68812587  0.67008024  0.46305088     0.10500
H1426       H  0.69475143  0.67671863  0.44294330     0.10600
H1427       H  0.70141161  0.74101354  0.44683494     0.10200
H1428       H  0.69530756  0.73452744  0.46686159     0.11300
H1429       H  0.70486987  0.70038285  0.42641525     0.11400
H1430       H  0.72099667  0.74946045  0.43141212     0.13300
H1431       H  0.72701415  0.76943993  0.41305722     0.09900
H1432       H  0.74576325  0.77951611  0.39479086     0.11900
H1433       H  0.75339450  0.72274746  0.39671717     0.08600
H1434       H  0.73490879  0.71276189  0.41491648     0.11300
C1435       C  0.76130493  0.68417652  0.49168064    -0.03300
C1436       C  0.75803519  0.66349928  0.49499839    -0.05900
C1437       C  0.77449902  0.65857393  0.49275123    -0.21000
C1438       C  0.79403180  0.67395886  0.48688753     0.24700
C1439       C  0.79674615  0.69425913  0.48323077    -0.18500
C1440       C  0.78059552  0.69930042  0.48562991    -0.08500
C1441       C  0.81298377  0.67050389  0.48615055    -0.18800
C1442       C  0.82819225  0.67978784  0.47787954    -0.23600
C1443       C  0.85195673  0.68705413  0.47959171     0.26800
C1444       C  0.86836118  0.70759704  0.47489057    -0.20400
C1445       C  0.89082832  0.71762766  0.47797549    -0.10000
C1446       C  0.89739187  0.70706165  0.48565909    -0.10600
C1447       C  0.88128066  0.68565741  0.48971391    -0.03500
C1448       C  0.85863010  0.67573494  0.48675454    -0.18600
H1449       H  0.74327459  0.65162406  0.49972044     0.10500
H1450       H  0.77227836  0.64303754  0.49582507     0.10600
H1451       H  0.81193810  0.70692339  0.47906943     0.10200
H1452       H  0.78348217  0.71534489  0.48296576     0.11300
H1453       H  0.81618569  0.66335624  0.49343882     0.11400
H1454       H  0.82439693  0.68656216  0.47061961     0.13300
H1455       H  0.86362248  0.71660023  0.46933349     0.09900
H1456       H  0.90298299  0.73398127  0.47458613     0.11900
H1457       H  0.88602671  0.67706413  0.49554070     0.08600
H1458       H  0.84637300  0.65961712  0.49030999     0.11300
C1459       C  0.00639875  0.24123437  0.46845822    -0.03300
C1460       C  0.02114936  0.25902213  0.46137986    -0.05900
C1461       C  0.01824505  0.25709647  0.44971167    -0.21000
C1462       C  0.00079890  0.23722829  0.44478198     0.24700
C1463       C  0.98560713  0.21963716  0.45185365    -0.18500
C1464       C  0.98834653  0.22166664  0.46355770    -0.08500
C1465       C  0.99883221  0.23568511  0.43228666    -0.18800
C1466       C  0.99072863  0.21636662  0.42647405    -0.23600
C1467       C  0.99043507  0.21536870  0.41394240     0.26800
C1468       C  0.99260818  0.19891937  0.40853920    -0.20400
C1469       C  0.99303490  0.19792327  0.39679230    -0.10000
C1470       C  0.99089109  0.21314870  0.39004243    -0.10600
C1471       C  0.98763750  0.22896092  0.39556631    -0.03500
C1472       C  0.98761846  0.23018230  0.40729902    -0.18600
H1473       H  0.03529414  0.27427938  0.46484514     0.10500
H1474       H  0.03008308  0.27099295  0.44448865     0.10600
H1475       H  0.97161159  0.20431225  0.44836817     0.10200
H1476       H  0.97669999  0.20763461  0.46875802     0.11300
H1477       H  0.00597461  0.25135158  0.42769824     0.11400
H1478       H  0.98567213  0.20100514  0.43100684     0.13300
H1479       H  0.99450786  0.18706442  0.41343917     0.09900
H1480       H  0.99542626  0.18534296  0.39315354     0.11900
H1481       H  0.98486363  0.24044847  0.39091761     0.08600
H1482       H  0.98501987  0.24253811  0.41114448     0.11300
C1483       C  0.27536213  0.27229570  0.46224159    -0.03300
C1484       C  0.27623582  0.25376199  0.45868544    -0.05900
C1485       C  0.27331720  0.24762723  0.44735588    -0.21000
C1486       C  0.26950066  0.25985307  0.43930751     0.24700
C1487       C  0.27102144  0.27977942  0.44272578    -0.18500
C1488       C  0.27388660  0.28587910  0.45407496    -0.08500
C1489       C  0.26239988  0.25015877  0.42778522    -0.18800
C1490       C  0.25396096  0.25745316  0.41986570    -0.23600
C1491       C  0.24440177  0.24540764  0.40905016     0.26800
C1492       C  0.24514638  0.25750436  0.39951230    -0.20400
C1493       C  0.23619307  0.24654666  0.38924878    -0.10000
C1494       C  0.22596410  0.22315812  0.38835253    -0.10600
C1495       C  0.22447084  0.21099084  0.39802947    -0.03500
C1496       C  0.23358436  0.22194597  0.40823098    -0.18600
H1497       H  0.27727067  0.24287952  0.46474598     0.10500
H1498       H  0.27262276  0.23241421  0.44499135     0.10600
H1499       H  0.26902602  0.29025605  0.43683697     0.10200
H1500       H  0.27327494  0.30034765  0.45653615     0.11300
H1501       H  0.26306094  0.23541099  0.42596367     0.11400
H1502       H  0.25379838  0.27257536  0.42120420     0.13300
H1503       H  0.25308502  0.27555537  0.39995403     0.09900
H1504       H  0.23786610  0.25651400  0.38197427     0.11900
H1505       H  0.21612585  0.19289846  0.39776011     0.08600
H1506       H  0.23176383  0.21191610  0.41550206     0.11300
C1507       C  0.09505136  0.29146703  0.51052404    -0.03300
C1508       C  0.10692959  0.28685265  0.51838718    -0.05900
C1509       C  0.13011838  0.30122128  0.51949977    -0.21000
C1510       C  0.14184782  0.32005482  0.51254140     0.24700
C1511       C  0.12970831  0.32586269  0.50544075    -0.18500
C1512       C  0.10636150  0.31167392  0.50449822    -0.08500
C1513       C  0.16635518  0.33026682  0.51144162    -0.18800
C1514       C  0.17575412  0.33422835  0.50121541    -0.23600
C1515       C  0.19333957  0.32932304  0.49875944     0.26800
C1516       C  0.19159938  0.31828306  0.48866150    -0.20400
C1517       C  0.20366227  0.30793031  0.48714037    -0.10000
C1518       C  0.21804171  0.30887158  0.49560735    -0.10600
C1519       C  0.22153884  0.32183344  0.50523487    -0.03500
C1520       C  0.20924208  0.33198148  0.50682105    -0.18600
H1521       H  0.09842498  0.27158506  0.52330387     0.10500
H1522       H  0.13910346  0.29651185  0.52509577     0.10600
H1523       H  0.13834791  0.34060388  0.50016634     0.10200
H1524       H  0.09741215  0.31570184  0.49850906     0.11300
H1525       H  0.17474799  0.32800779  0.51850294     0.11400
H1526       H  0.16645850  0.33473849  0.49404517     0.13300
H1527       H  0.17957574  0.31613610  0.48228959     0.09900
H1528       H  0.20095375  0.29832341  0.47956059     0.11900
H1529       H  0.23275515  0.32301309  0.51182946     0.08600
H1530       H  0.21141497  0.34093669  0.51456555     0.11300
C1531       C  0.21481423  0.00526636  0.46230894    -0.03300
C1532       C  0.21412493  0.98579210  0.45890115    -0.05900
C1533       C  0.21782307  0.98286079  0.44767549    -0.21000
C1534       C  0.22201985  0.99917953  0.43960581     0.24700
C1535       C  0.22412742  0.01928382  0.44316986    -0.18500
C1536       C  0.22045151  0.02221796  0.45437668    -0.08500
C1537       C  0.22338438  0.99442078  0.42755274    -0.18800
C1538       C  0.21744679  0.00320134  0.41917849    -0.23600
C1539       C  0.21656570  0.99783126  0.40700013     0.26800
C1540       C  0.21003558  0.00865378  0.39942787    -0.20400
C1541       C  0.20831918  0.00407314  0.38794525    -0.10000
C1542       C  0.21309837  0.98849751  0.38368709    -0.10600
C1543       C  0.21976340  0.97768276  0.39120417    -0.03500
C1544       C  0.22147622  0.98225244  0.40272902    -0.18600
H1545       H  0.20983631  0.97242019  0.46481240     0.10500
H1546       H  0.21643254  0.96736218  0.44520229     0.10600
H1547       H  0.22830357  0.03269085  0.43731850     0.10200
H1548       H  0.22128647  0.03749174  0.45674956     0.11300
H1549       H  0.22785397  0.98221829  0.42572921     0.11400
H1550       H  0.21195722  0.01450028  0.42135372     0.13300
H1551       H  0.20624771  0.02080970  0.40240652     0.09900
H1552       H  0.20368780  0.01313698  0.38238795     0.11900
H1553       H  0.22344446  0.96548346  0.38819236     0.08600
H1554       H  0.22651475  0.97339423  0.40814902     0.11300
C1555       C  0.17517441  0.06255393  0.49506047    -0.03300
C1556       C  0.18490644  0.07858017  0.50366515    -0.05900
C1557       C  0.18093964  0.09598523  0.50428220    -0.21000
C1558       C  0.16737971  0.09788500  0.49625568     0.24700
C1559       C  0.15714144  0.08146713  0.48780009    -0.18500
C1560       C  0.16106650  0.06401697  0.48720560    -0.08500
C1561       C  0.16551336  0.11790318  0.49670421    -0.18800
C1562       C  0.16097546  0.12629885  0.48765640    -0.23600
C1563       C  0.16713969  0.14991798  0.48740950     0.26800
C1564       C  0.17818197  0.16268589  0.47789163    -0.20400
C1565       C  0.18958611  0.18602778  0.47831210    -0.10000
C1566       C  0.18963747  0.19689497  0.48817827    -0.10600
C1567       C  0.17627597  0.18403971  0.49723762    -0.03500
C1568       C  0.16517715  0.16062196  0.49689044    -0.18600
H1569       H  0.19561404  0.07768919  0.50992094     0.10500
H1570       H  0.18895545  0.10833669  0.51090858     0.10600
H1571       H  0.14606888  0.08192289  0.48164092     0.10200
H1572       H  0.15309892  0.05169601  0.48056696     0.11300
H1573       H  0.17140006  0.12791157  0.50432342     0.11400
H1574       H  0.15713211  0.11760930  0.47967838     0.13300
H1575       H  0.17970684  0.15475123  0.47046454     0.09900
H1576       H  0.19964467  0.19562646  0.47118819     0.11900
H1577       H  0.17602987  0.19208823  0.50492238     0.08600
H1578       H  0.15623375  0.15103120  0.50424609     0.11300
C1579       C  0.98991541  0.81444970  0.49690654    -0.03300
C1580       C  0.99885620  0.82751124  0.50664034    -0.05900
C1581       C  0.01150416  0.85088785  0.50593425    -0.21000
C1582       C  0.01584151  0.86149746  0.49547669     0.24700
C1583       C  0.00513717  0.84847080  0.48586943    -0.18500
C1584       C  0.99220106  0.82508278  0.48660077    -0.08500
C1585       C  0.03379519  0.88555276  0.49475947    -0.18800
C1586       C  0.04830500  0.89353827  0.48613583    -0.23600
C1587       C  0.07070772  0.91458409  0.48681535     0.26800
C1588       C  0.08823955  0.91601038  0.48053651    -0.20400
C1589       C  0.11025141  0.93410326  0.48193951    -0.10000
C1590       C  0.11514335  0.95131101  0.48956828    -0.10600
C1591       C  0.09745483  0.95061011  0.49538872    -0.03500
C1592       C  0.07538685  0.93238657  0.49403563    -0.18600
H1593       H  0.99700599  0.81964715  0.51470651     0.10500
H1594       H  0.01933626  0.86061371  0.51346788     0.10600
H1595       H  0.00757717  0.85624413  0.47773585     0.10200
H1596       H  0.98525555  0.81532793  0.47899044     0.11300
H1597       H  0.03764570  0.89551925  0.50233377     0.11400
H1598       H  0.04539133  0.88259702  0.47905274     0.13300
H1599       H  0.08504991  0.90261957  0.47484454     0.09900
H1600       H  0.12350093  0.93440923  0.47718952     0.11900
H1601       H  0.10073056  0.96389810  0.50116512     0.08600
H1602       H  0.06217021  0.93219584  0.49873575     0.11300
C1603       C  0.80733174  0.99840704  0.46655567    -0.03300
C1604       C  0.80751778  0.01711642  0.46227797    -0.05900
C1605       C  0.80272472  0.01800388  0.45091959    -0.21000
C1606       C  0.79716633  0.00003122  0.44365865     0.24700
C1607       C  0.79668560  0.98118980  0.44798517    -0.18500
C1608       C  0.80176896  0.98043510  0.45927423    -0.08500
C1609       C  0.79314974  0.00179213  0.43151908    -0.18800
C1610       C  0.77895491  0.98378319  0.42518924    -0.23600
C1611       C  0.77522023  0.98486840  0.41295855     0.26800
C1612       C  0.75457953  0.96842765  0.40819945    -0.20400
C1613       C  0.75086685  0.96792692  0.39663664    -0.10000
C1614       C  0.76791374  0.98359804  0.38952062    -0.10600
C1615       C  0.78860073  0.00008051  0.39424555    -0.03500
C1616       C  0.79219398  0.00082483  0.40585717    -0.18600
H1617       H  0.81194177  0.03131191  0.46763915     0.10500
H1618       H  0.80341083  0.03279779  0.44778259     0.10600
H1619       H  0.79308153  0.96729003  0.44258878     0.10200
H1620       H  0.80166813  0.96585709  0.46226943     0.11300
H1621       H  0.80151433  0.01843160  0.42782947     0.11400
H1622       H  0.76897419  0.96750768  0.42920202     0.13300
H1623       H  0.74131790  0.95579139  0.41344960     0.09900
H1624       H  0.73488864  0.95480181  0.39321684     0.11900
H1625       H  0.80203080  0.01236557  0.38895054     0.08600
H1626       H  0.80848795  0.01341779  0.40919205     0.11300
C1627       C  0.90322289  0.04366981  0.49583546    -0.03300
C1628       C  0.91054163  0.06132971  0.48817531    -0.05900
C1629       C  0.93336826  0.07738503  0.48700632    -0.21000
C1630       C  0.94935360  0.07648435  0.49366074     0.24700
C1631       C  0.94219297  0.05824051  0.50099466    -0.18500
C1632       C  0.91925634  0.04183596  0.50200252    -0.08500
C1633       C  0.97271753  0.09621156  0.49350188    -0.18800
C1634       C  0.98500555  0.10451743  0.50294039    -0.23600
C1635       C  0.00085639  0.12904226  0.50428744     0.26800
C1636       C  0.99974680  0.13893612  0.51424747    -0.20400
C1637       C  0.00878797  0.16198972  0.51477447    -0.10000
C1638       C  0.01950594  0.17562283  0.50541082    -0.10600
C1639       C  0.02311126  0.16617068  0.49591743    -0.03500
C1640       C  0.01376699  0.14295934  0.49533560    -0.18600
H1641       H  0.89855465  0.06296877  0.48321494     0.10500
H1642       H  0.93845147  0.09124921  0.48129257     0.10600
H1643       H  0.95418508  0.05689519  0.50609918     0.10200
H1644       H  0.91400866  0.02823336  0.50790213     0.11300
H1645       H  0.97747131  0.10696334  0.48617431     0.11400
H1646       H  0.97919948  0.09458373  0.51056041     0.13300
H1647       H  0.99004897  0.12859816  0.52128390     0.09900
H1648       H  0.00605065  0.16890700  0.52225938     0.11900
H1649       H  0.03153622  0.17637974  0.48862911     0.08600
H1650       H  0.01538235  0.13578702  0.48764589     0.11300
C1651       C  0.81070801  0.92877184  0.50676672    -0.03300
C1652       C  0.78785664  0.91274880  0.50850809    -0.05900
C1653       C  0.78053946  0.89026446  0.51006897    -0.21000
C1654       C  0.79584351  0.88328836  0.50982924     0.24700
C1655       C  0.81884650  0.89938151  0.50838701    -0.18500
C1656       C  0.82620328  0.92197093  0.50685524    -0.08500
C1657       C  0.78693730  0.85908768  0.51112191    -0.18800
C1658       C  0.79712923  0.84893099  0.50706483    -0.23600
C1659       C  0.78592038  0.82420374  0.50719809     0.26800
C1660       C  0.79010875  0.81355804  0.49848632    -0.20400
C1661       C  0.77773136  0.79016085  0.49767540    -0.10000
C1662       C  0.76094962  0.77715855  0.50555525    -0.10600
C1663       C  0.75764964  0.78772775  0.51461120    -0.03500
C1664       C  0.77023242  0.81103571  0.51551936    -0.18600
H1665       H  0.77555339  0.91753721  0.50855855     0.10500
H1666       H  0.76276326  0.87819477  0.51125952     0.10600
H1667       H  0.83118469  0.89466626  0.50850414     0.10200
H1668       H  0.84395961  0.93406609  0.50566027     0.11300
H1669       H  0.77020547  0.84893967  0.51463937     0.11400
H1670       H  0.81277569  0.85856499  0.50248709     0.13300
H1671       H  0.80228282  0.82336262  0.49205031     0.09900
H1672       H  0.78059561  0.78229791  0.49063492     0.11900
H1673       H  0.74511105  0.77796760  0.52091132     0.08600
H1674       H  0.76731699  0.81867088  0.52263243     0.11300
C1675       C  0.44306073  0.14788399  0.69419217    -0.03300
C1676       C  0.42404923  0.14712044  0.68987969    -0.05900
C1677       C  0.42295536  0.16642575  0.68963223    -0.21000
C1678       C  0.44063554  0.18702163  0.69386554     0.24700
C1679       C  0.45966642  0.18783292  0.69829089    -0.18500
C1680       C  0.46088975  0.16851227  0.69839979    -0.08500
C1681       C  0.43884916  0.20725799  0.69292533    -0.18800
C1682       C  0.45003306  0.22582211  0.69945273    -0.23600
C1683       C  0.44705410  0.24533088  0.69840241     0.26800
C1684       C  0.45006135  0.25866060  0.70784566    -0.20400
C1685       C  0.44642381  0.27645207  0.70718068    -0.10000
C1686       C  0.43988220  0.28148790  0.69701348    -0.10600
C1687       C  0.43805636  0.26885223  0.68744611    -0.03500
C1688       C  0.44152603  0.25104764  0.68812405    -0.18600
H1689       H  0.41017508  0.13168353  0.68639976     0.10500
H1690       H  0.40817340  0.16525833  0.68607063     0.10600
H1691       H  0.47384533  0.20342848  0.70142996     0.10200
H1692       H  0.47576413  0.16969758  0.70182719     0.11300
H1693       H  0.42672867  0.20620485  0.68688477     0.11400
H1694       H  0.46061907  0.22625090  0.70622010     0.13300
H1695       H  0.45461515  0.25488616  0.71585255     0.09900
H1696       H  0.44796961  0.28569277  0.71471442     0.11900
H1697       H  0.43378922  0.27262610  0.67936638     0.08600
H1698       H  0.43997213  0.24187554  0.68054737     0.11300
C1699       C  0.61473276  0.09643434  0.68890765    -0.03300
C1700       C  0.60139224  0.08835499  0.67911624    -0.05900
C1701       C  0.58134923  0.08812996  0.67813200    -0.21000
C1702       C  0.57401187  0.09617447  0.68681624     0.24700
C1703       C  0.58737902  0.10438818  0.69658181    -0.18500
C1704       C  0.60743881  0.10466166  0.69754809    -0.08500
C1705       C  0.55213028  0.09505143  0.68546964    -0.18800
C1706       C  0.54621206  0.10719405  0.69168116    -0.23600
C1707       C  0.52441452  0.10635259  0.69081457     0.26800
C1708       C  0.52007204  0.11798658  0.69892862    -0.20400
C1709       C  0.50004280  0.11772747  0.69881575    -0.10000
C1710       C  0.48332242  0.10568981  0.69061647    -0.10600
C1711       C  0.48784891  0.09442740  0.68226061    -0.03500
C1712       C  0.50809887  0.09475384  0.68235569    -0.18600
H1713       H  0.60642405  0.08230443  0.67210781     0.10500
H1714       H  0.57154582  0.08168139  0.67049306     0.10600
H1715       H  0.58228917  0.11018708  0.70366314     0.10200
H1716       H  0.61685696  0.11093169  0.70523572     0.11300
H1717       H  0.54078822  0.08397572  0.67899087     0.11400
H1718       H  0.55801938  0.11865277  0.69791300     0.13300
H1719       H  0.53217942  0.12718970  0.70554065     0.09900
H1720       H  0.49731415  0.12661097  0.70539316     0.11900
H1721       H  0.47582083  0.08501662  0.67570720     0.08600
H1722       H  0.51073170  0.08583465  0.67579564     0.11300
C1723       C  0.61471131  0.50193692  0.69197378    -0.03300
C1724       C  0.60185598  0.49569393  0.68204791    -0.05900
C1725       C  0.58144346  0.47490799  0.68118366    -0.21000
C1726       C  0.57312660  0.45969366  0.69019989     0.24700
C1727       C  0.58622404  0.46575687  0.70006722    -0.18500
C1728       C  0.60659228  0.48657325  0.70094168    -0.08500
C1729       C  0.55098527  0.43780935  0.68882167    -0.18800
C1730       C  0.53900867  0.42370936  0.69732963    -0.23600
C1731       C  0.51657917  0.40203770  0.69618192     0.26800
C1732       C  0.50606296  0.38979088  0.70597359    -0.20400
C1733       C  0.48505347  0.36960918  0.70554847    -0.10000
C1734       C  0.47375809  0.36094030  0.69529188    -0.10600
C1735       C  0.48419746  0.37306225  0.68545238    -0.03500
C1736       C  0.50533535  0.39326864  0.68586168    -0.18600
H1737       H  0.60756092  0.50683393  0.67489239     0.10500
H1738       H  0.57198711  0.47077914  0.67342159     0.10600
H1739       H  0.58100779  0.45460393  0.70718328     0.10200
H1740       H  0.61563605  0.49075152  0.70881604     0.11300
H1741       H  0.54417384  0.43370271  0.68039566     0.11400
H1742       H  0.54557394  0.42834253  0.70578605     0.13300
H1743       H  0.51407794  0.39595890  0.71406864     0.09900
H1744       H  0.47744090  0.36108858  0.71333961     0.11900
H1745       H  0.47610462  0.36681697  0.67738752     0.08600
H1746       H  0.51258334  0.40177758  0.67804911     0.11300
C1747       C  0.83098557  0.53944846  0.69977168    -0.03300
C1748       C  0.83242654  0.55873485  0.69550466    -0.05900
C1749       C  0.81328789  0.55997504  0.69468225    -0.21000
C1750       C  0.79216650  0.54203531  0.69813866     0.24700
C1751       C  0.79072858  0.52272447  0.70254875    -0.18500
C1752       C  0.80993689  0.52143024  0.70328450    -0.08500
C1753       C  0.77257176  0.54479290  0.69718858    -0.18800
C1754       C  0.75084561  0.52855055  0.69898748    -0.23600
C1755       C  0.73205897  0.53259246  0.69813024     0.26800
C1756       C  0.70991950  0.51434894  0.69640857    -0.20400
C1757       C  0.69196676  0.51768231  0.69557654    -0.10000
C1758       C  0.69586600  0.53937013  0.69637380    -0.10600
C1759       C  0.71787128  0.55749878  0.69838113    -0.03500
C1760       C  0.73568621  0.55417912  0.69933270    -0.18600
H1761       H  0.84832259  0.57277821  0.69259367     0.10500
H1762       H  0.81502818  0.57509672  0.69128359     0.10600
H1763       H  0.77500690  0.50866095  0.70554525     0.10200
H1764       H  0.80839314  0.50646014  0.70676253     0.11300
H1765       H  0.77645965  0.56122784  0.69455229     0.11400
H1766       H  0.74636761  0.51157350  0.70080769     0.13300
H1767       H  0.70653131  0.49748916  0.69561763     0.09900
H1768       H  0.67512872  0.50339587  0.69413419     0.11900
H1769       H  0.72128917  0.57431861  0.69945124     0.08600
H1770       H  0.75214685  0.56859984  0.70123245     0.11300
C1771       C  0.87377749  0.49992947  0.69721076    -0.03300
C1772       C  0.85871945  0.48139475  0.70387580    -0.05900
C1773       C  0.85780522  0.46104802  0.70336296    -0.21000
C1774       C  0.87215337  0.45836069  0.69631234     0.24700
C1775       C  0.88717207  0.47671991  0.68950614    -0.18500
C1776       C  0.88795219  0.49717657  0.68994282    -0.08500
C1777       C  0.87046575  0.43608737  0.69643766    -0.18800
C1778       C  0.88547492  0.43191839  0.69183476    -0.23600
C1779       C  0.88396439  0.40975926  0.69254194     0.26800
C1780       C  0.90328130  0.40922942  0.69028266    -0.20400
C1781       C  0.90288378  0.38909355  0.69075471    -0.10000
C1782       C  0.88301356  0.36858360  0.69338455    -0.10600
C1783       C  0.86358741  0.36903678  0.69559143    -0.03500
C1784       C  0.86400617  0.38926317  0.69515635    -0.18600
H1785       H  0.84768496  0.48276555  0.70966580     0.10500
H1786       H  0.84596120  0.44737351  0.70869421     0.10600
H1787       H  0.89835920  0.47547450  0.68380463     0.10200
H1788       H  0.90006200  0.51079055  0.68473022     0.11300
H1789       H  0.85648991  0.42273130  0.70107839     0.11400
H1790       H  0.90023033  0.44555290  0.68777071     0.13300
H1791       H  0.91893672  0.42458807  0.68824304     0.09900
H1792       H  0.91839785  0.38979734  0.68923206     0.11900
H1793       H  0.84784168  0.35368984  0.69745963     0.08600
H1794       H  0.84851037  0.38857058  0.69667579     0.11300
C1795       C  0.69416802  0.14648594  0.69075670    -0.03300
C1796       C  0.70429573  0.15671534  0.68054548    -0.05900
C1797       C  0.72267817  0.17882921  0.68025836    -0.21000
C1798       C  0.73171358  0.19130948  0.69016971     0.24700
C1799       C  0.72100599  0.18135394  0.70041015    -0.18500
C1800       C  0.70233220  0.15916730  0.70067042    -0.08500
C1801       C  0.75250181  0.21423737  0.68923171    -0.18800
C1802       C  0.76618311  0.22632569  0.69784884    -0.23600
C1803       C  0.78822971  0.24800011  0.69635942     0.26800
C1804       C  0.79808164  0.26261075  0.70555792    -0.20400
C1805       C  0.81965764  0.28204719  0.70479654    -0.10000
C1806       C  0.83204773  0.28724500  0.69482549    -0.10600
C1807       C  0.82189374  0.27302980  0.68550370    -0.03500
C1808       C  0.80038804  0.25362962  0.68626210    -0.18600
H1809       H  0.69823555  0.14739392  0.67276532     0.10500
H1810       H  0.73031886  0.18599285  0.67223453     0.10600
H1811       H  0.72700452  0.19040661  0.70823818     0.10200
H1812       H  0.69488500  0.15161549  0.70866660     0.11300
H1813       H  0.75713975  0.22102911  0.68082599     0.11400
H1814       H  0.76154061  0.22009976  0.70634236     0.13300
H1815       H  0.78925936  0.25867875  0.71346796     0.09900
H1816       H  0.82703140  0.29233284  0.71220566     0.11900
H1817       H  0.83085592  0.27655108  0.67766035     0.08600
H1818       H  0.79388719  0.24270344  0.67902950     0.11300
C1819       C  0.74005822  0.74676291  0.60852718    -0.03300
C1820       C  0.72113727  0.74655503  0.60445104    -0.05900
C1821       C  0.71130528  0.73649841  0.59419549    -0.21000
C1822       C  0.71979755  0.72600167  0.58778482     0.24700
C1823       C  0.73832616  0.72552330  0.59197755    -0.18500
C1824       C  0.74829976  0.73575409  0.60228012    -0.08500
C1825       C  0.71011393  0.71767101  0.57639374    -0.18800
C1826       C  0.71070889  0.70122685  0.57094500    -0.23600
C1827       C  0.70394736  0.69520770  0.55894171     0.26800
C1828       C  0.71260105  0.68422022  0.55305412    -0.20400
C1829       C  0.70979756  0.68126849  0.54144322    -0.10000
C1830       C  0.69814962  0.68915315  0.53539605    -0.10600
C1831       C  0.68772657  0.69833688  0.54138326    -0.03500
C1832       C  0.69048713  0.70124767  0.55305043    -0.18600
H1833       H  0.71389064  0.75428213  0.60917594     0.10500
H1834       H  0.69708090  0.73711736  0.59119551     0.10600
H1835       H  0.74571680  0.71808362  0.58714316     0.10200
H1836       H  0.76290831  0.73572631  0.60515225     0.11300
H1837       H  0.70271448  0.72602206  0.57233197     0.11400
H1838       H  0.71800718  0.69289867  0.57516685     0.13300
H1839       H  0.72270367  0.67903227  0.55734946     0.09900
H1840       H  0.71798563  0.67403108  0.53711756     0.11900
H1841       H  0.67850090  0.70442520  0.53698771     0.08600
H1842       H  0.68262478  0.70886198  0.55729242     0.11300
C1843       C  0.73261657  0.72378416  0.64420773    -0.03300
C1844       C  0.72465150  0.70405050  0.63791696    -0.05900
C1845       C  0.71311959  0.68297156  0.64304016    -0.21000
C1846       C  0.70885062  0.68074392  0.65461070     0.24700
C1847       C  0.71630953  0.70044085  0.66094653    -0.18500
C1848       C  0.72801600  0.72168481  0.65578729    -0.08500
C1849       C  0.69750457  0.65760060  0.65951714    -0.18800
C1850       C  0.68997858  0.65194279  0.67016158    -0.23600
C1851       C  0.67998906  0.62878375  0.67497772     0.26800
C1852       C  0.67019070  0.62426468  0.68567117    -0.20400
C1853       C  0.66262187  0.60367322  0.69102002    -0.10000
C1854       C  0.66473885  0.58686575  0.68584751    -0.10600
C1855       C  0.67284457  0.59076677  0.67476793    -0.03500
C1856       C  0.68079252  0.61147170  0.66950777    -0.18600
H1857       H  0.72710117  0.70472450  0.62894628     0.10500
H1858       H  0.70756251  0.66824370  0.63788072     0.10600
H1859       H  0.71370340  0.69971921  0.66989471     0.10200
H1860       H  0.73399461  0.73647416  0.66093981     0.11300
H1861       H  0.69522363  0.64456405  0.65383350     0.11400
H1862       H  0.69116426  0.66471591  0.67571383     0.13300
H1863       H  0.66881140  0.63695379  0.69004906     0.09900
H1864       H  0.65533114  0.60131006  0.69923124     0.11900
H1865       H  0.67421039  0.57811065  0.67035233     0.08600
H1866       H  0.68814886  0.61379286  0.66131108     0.11300
C1867       C  0.80495036  0.76919566  0.63181722    -0.03300
C1868       C  0.80317500  0.74865015  0.63394294    -0.05900
C1869       C  0.82236587  0.74736573  0.63465410    -0.21000
C1870       C  0.84403729  0.76652364  0.63328329     0.24700
C1871       C  0.84591596  0.78718789  0.63124061    -0.18500
C1872       C  0.82664866  0.78846418  0.63050615    -0.08500
C1873       C  0.86382671  0.76385898  0.63422796    -0.18800
C1874       C  0.88543369  0.77976401  0.63172669    -0.23600
C1875       C  0.90466251  0.77618601  0.63253698     0.26800
C1876       C  0.92692374  0.79491899  0.63281712    -0.20400
C1877       C  0.94533996  0.79223675  0.63371931    -0.10000
C1878       C  0.94190512  0.77072567  0.63442791    -0.10600
C1879       C  0.91973664  0.75200891  0.63370672    -0.03500
C1880       C  0.90142472  0.75465065  0.63273002    -0.18600
H1881       H  0.78697390  0.73349562  0.63533651     0.10500
H1882       H  0.82021621  0.73120878  0.63633474     0.10600
H1883       H  0.86212434  0.80250531  0.63027396     0.10200
H1884       H  0.82881934  0.80460458  0.62881274     0.11300
H1885       H  0.86008361  0.74764906  0.63715841     0.11400
H1886       H  0.88953418  0.79624577  0.62908409     0.13300
H1887       H  0.93007360  0.81173366  0.63250748     0.09900
H1888       H  0.96218925  0.80696715  0.63419160     0.11900
H1889       H  0.91650679  0.73515602  0.63385504     0.08600
H1890       H  0.88485008  0.73967121  0.63200846     0.11300
C1891       C  0.98683663  0.76077172  0.61135707    -0.03300
C1892       C  0.00086647  0.75423332  0.60678206    -0.05900
C1893       C  0.00188095  0.75207389  0.59518653    -0.21000
C1894       C  0.98848775  0.75584296  0.58792121     0.24700
C1895       C  0.97492208  0.76307457  0.59247004    -0.18500
C1896       C  0.97423488  0.76565128  0.60409377    -0.08500
C1897       C  0.98924354  0.75216656  0.57568433    -0.18800
C1898       C  0.97125878  0.74466510  0.56887335    -0.23600
C1899       C  0.97102151  0.74003703  0.55662688     0.26800
C1900       C  0.95024800  0.72894122  0.55098911    -0.20400
C1901       C  0.94911540  0.72595313  0.53936270    -0.10000
C1902       C  0.96877354  0.73395113  0.53304008    -0.10600
C1903       C  0.98950894  0.74408748  0.53868749    -0.03500
C1904       C  0.99067935  0.74722168  0.55034224    -0.18600
H1905       H  0.01096550  0.75064733  0.61220280     0.10500
H1906       H  0.01269865  0.74680935  0.59189528     0.10600
H1907       H  0.96487590  0.76676192  0.58707868     0.10200
H1908       H  0.96329412  0.77072164  0.60742865     0.11300
H1909       H  0.00460732  0.75416122  0.57249191     0.11400
H1910       H  0.95554941  0.74110070  0.57251282     0.13300
H1911       H  0.93480924  0.72311192  0.55555894     0.09900
H1912       H  0.93286101  0.71810747  0.53526809     0.11900
H1913       H  0.00496602  0.75066688  0.53402988     0.08600
H1914       H  0.00710862  0.75607790  0.55422230     0.11300
C1915       C  0.97241454  0.72619658  0.64998772    -0.03300
C1916       C  0.98025582  0.72763458  0.66104285    -0.05900
C1917       C  0.97218931  0.70820229  0.66765390    -0.21000
C1918       C  0.95622167  0.68671885  0.66343178     0.24700
C1919       C  0.94839211  0.68528968  0.65240582    -0.18500
C1920       C  0.95613940  0.70463631  0.64589500    -0.08500
C1921       C  0.94689164  0.66648875  0.67096288    -0.18800
C1922       C  0.93659174  0.64500669  0.66718427    -0.23600
C1923       C  0.92578622  0.62422037  0.67437847     0.26800
C1924       C  0.91861910  0.60339835  0.66927717    -0.20400
C1925       C  0.90740487  0.58327529  0.67540399    -0.10000
C1926       C  0.90288918  0.58324407  0.68688803    -0.10600
C1927       C  0.91025858  0.60410259  0.69204245    -0.03500
C1928       C  0.92145517  0.62425607  0.68590328    -0.18600
H1929       H  0.99192662  0.74374232  0.66481204     0.10500
H1930       H  0.97823874  0.71001293  0.67619008     0.10600
H1931       H  0.93549837  0.66937746  0.64888089     0.10200
H1932       H  0.94881890  0.70273803  0.63765341     0.11300
H1933       H  0.94894382  0.66966858  0.67990922     0.11400
H1934       H  0.93614715  0.64225308  0.65821725     0.13300
H1935       H  0.92147249  0.60262183  0.66041855     0.09900
H1936       H  0.90179147  0.56768191  0.67103071     0.11900
H1937       H  0.90754710  0.60500832  0.70089269     0.08600
H1938       H  0.92630474  0.63967673  0.69023639     0.11300
C1939       C  0.17032609  0.94799588  0.63628488    -0.03300
C1940       C  0.16973398  0.92779546  0.63747511    -0.05900
C1941       C  0.14926540  0.90706365  0.63826106    -0.21000
C1942       C  0.12848430  0.90556453  0.63790528     0.24700
C1943       C  0.12897743  0.92581794  0.63677849    -0.18500
C1944       C  0.14960922  0.94668617  0.63590837    -0.08500
C1945       C  0.10721321  0.88253586  0.63890501    -0.18800
C1946       C  0.08581920  0.87745705  0.63730395    -0.23600
C1947       C  0.06477911  0.85413581  0.63813129     0.26800
C1948       C  0.04388381  0.85100891  0.63509028    -0.20400
C1949       C  0.02380386  0.82972566  0.63559718    -0.10000
C1950       C  0.02378967  0.81069662  0.63925167    -0.10600
C1951       C  0.04463657  0.81380245  0.64240926    -0.03500
C1952       C  0.06473684  0.83506938  0.64187506    -0.18600
H1953       H  0.18518126  0.92789856  0.63759914     0.10500
H1954       H  0.14972723  0.89199407  0.63909907     0.10600
H1955       H  0.11358705  0.92576868  0.63663664     0.10200
H1956       H  0.14934353  0.96185974  0.63510380     0.11300
H1957       H  0.10971760  0.86898485  0.64081652     0.11400
H1958       H  0.08334882  0.89089717  0.63501388     0.13300
H1959       H  0.04305512  0.86515556  0.63222760     0.09900
H1960       H  0.00823234  0.82826663  0.63317426     0.11900
H1961       H  0.04561221  0.79964762  0.64506921     0.08600
H1962       H  0.08007834  0.83625044  0.64442481     0.11300
C1963       C  0.21360306  0.99186730  0.60666634    -0.03300
C1964       C  0.19273155  0.97850253  0.60129092    -0.05900
C1965       C  0.19103353  0.97835338  0.58957596    -0.21000
C1966       C  0.21008336  0.99157802  0.58286519     0.24700
C1967       C  0.23103748  0.00497794  0.58825044    -0.18500
C1968       C  0.23271812  0.00513472  0.59997988    -0.08500
C1969       C  0.20705162  0.99046280  0.57038398    -0.18800
C1970       C  0.22310330  0.00365243  0.56284670    -0.23600
C1971       C  0.21882384  0.00239070  0.55047687     0.26800
C1972       C  0.23265133  0.02125044  0.54375150    -0.20400
C1973       C  0.22801983  0.02123365  0.53228530    -0.10000
C1974       C  0.20948210  0.00227589  0.52728304    -0.10600
C1975       C  0.19652279  0.98297239  0.53384597    -0.03500
C1976       C  0.20119485  0.98295055  0.54526296    -0.18600
H1977       H  0.17769435  0.96781656  0.60610499     0.10500
H1978       H  0.17465647  0.96774220  0.58573098     0.10600
H1979       H  0.24625709  0.01532177  0.58353970     0.10200
H1980       H  0.24905311  0.01594499  0.60380684     0.11300
H1981       H  0.19023901  0.97849209  0.56732725     0.11400
H1982       H  0.23960967  0.01674611  0.56573932     0.13300
H1983       H  0.24660884  0.03633543  0.54746082     0.09900
H1984       H  0.23840359  0.03635123  0.52744957     0.11900
H1985       H  0.18234629  0.96796799  0.53020877     0.08600
H1986       H  0.19077249  0.96768119  0.54995385     0.11300
C1987       C  0.25569868  0.00380545  0.64341086    -0.03300
C1988       C  0.25706436  0.99268364  0.65293174    -0.05900
C1989       C  0.27757878  0.00084500  0.65861339    -0.21000
C1990       C  0.29751228  0.02022423  0.65497336     0.24700
C1991       C  0.29633932  0.03122123  0.64538200    -0.18500
C1992       C  0.27579276  0.02321792  0.63976879    -0.08500
C1993       C  0.31854748  0.02928166  0.66192429    -0.18800
C1994       C  0.33969751  0.04389807  0.65820831    -0.23600
C1995       C  0.36048714  0.05405773  0.66544279     0.26800
C1996       C  0.38169985  0.06368269  0.66033421    -0.20400
C1997       C  0.40163564  0.07478937  0.66672293    -0.10000
C1998       C  0.40096715  0.07688840  0.67842399    -0.10600
C1999       C  0.37975435  0.06692801  0.68355728    -0.03500
C2000       C  0.35983911  0.05571603  0.67718981    -0.18600
H2001       H  0.24231714  0.97815805  0.65637932     0.10500
H2002       H  0.27777716  0.99212112  0.66605277     0.10600
H2003       H  0.31102371  0.04652670  0.64241309     0.10200
H2004       H  0.27547985  0.03260861  0.63265212     0.11300
H2005       H  0.31633082  0.02321953  0.67047305     0.11400
H2006       H  0.34211766  0.04852144  0.64941685     0.13300
H2007       H  0.38288052  0.06285763  0.65131918     0.09900
H2008       H  0.41759710  0.08232911  0.66243975     0.11900
H2009       H  0.37845836  0.06777987  0.69255526     0.08600
H2010       H  0.34404246  0.04899470  0.68151913     0.11300
C2011       C  0.20297176  0.16425002  0.63195730    -0.03300
C2012       C  0.19271655  0.15101056  0.64151706    -0.05900
C2013       C  0.19222178  0.13106558  0.64323832    -0.21000
C2014       C  0.20146950  0.12349314  0.63533724     0.24700
C2015       C  0.21191899  0.13679567  0.62579085    -0.18500
C2016       C  0.21280621  0.15703602  0.62418416    -0.08500
C2017       C  0.20076027  0.10223511  0.63759774    -0.18800
C2018       C  0.19979443  0.08842058  0.62944602    -0.23600
C2019       C  0.19945743  0.06723465  0.63150997     0.26800
C2020       C  0.19291452  0.05156906  0.62274147    -0.20400
C2021       C  0.19454492  0.03263713  0.62385925    -0.10000
C2022       C  0.20290477  0.02890580  0.63378795    -0.10600
C2023       C  0.20845022  0.04401571  0.64276437    -0.03500
C2024       C  0.20687859  0.06296404  0.64164044    -0.18600
H2025       H  0.18539218  0.15629611  0.64779368     0.10500
H2026       H  0.18438414  0.12138634  0.65074843     0.10600
H2027       H  0.21979311  0.13183843  0.61967231     0.10200
H2028       H  0.22094360  0.16687070  0.61678556     0.11300
H2029       H  0.19982119  0.09738538  0.64630636     0.11400
H2030       H  0.19873979  0.09254473  0.62078292     0.13300
H2031       H  0.18713634  0.05434310  0.61483597     0.09900
H2032       H  0.19039549  0.02164033  0.61670665     0.11900
H2033       H  0.21468078  0.04158092  0.65060290     0.08600
H2034       H  0.21239628  0.07459721  0.64858714     0.11300
C2035       C  0.26047299  0.25940144  0.52878566    -0.03300
C2036       C  0.27393871  0.27821812  0.53562480    -0.05900
C2037       C  0.27279224  0.27615283  0.54735603    -0.21000
C2038       C  0.25838132  0.25524479  0.55247160     0.24700
C2039       C  0.24558448  0.23632755  0.54558000    -0.18500
C2040       C  0.24671334  0.23838527  0.53391860    -0.08500
C2041       C  0.25540994  0.25391141  0.56489071    -0.18800
C2042       C  0.24816374  0.23486976  0.57078534    -0.23600
C2043       C  0.24244556  0.23227139  0.58294342     0.26800
C2044       C  0.24199133  0.21488178  0.58898155    -0.20400
C2045       C  0.23461500  0.21044365  0.60012072    -0.10000
C2046       C  0.22703840  0.22298751  0.60541802    -0.10600
C2047       C  0.22804893  0.24079883  0.59946779    -0.03500
C2048       C  0.23561776  0.24538468  0.58837375    -0.18600
H2049       H  0.28452256  0.29467203  0.53193614     0.10500
H2050       H  0.28272674  0.29103583  0.55245615     0.10600
H2051       H  0.23376971  0.22005001  0.54912354     0.10200
H2052       H  0.23589006  0.22357858  0.52891921     0.11300
H2053       H  0.25931172  0.26911440  0.56925145     0.11400
H2054       H  0.24636407  0.22034842  0.56655472     0.13300
H2055       H  0.24699151  0.20439987  0.58498962     0.09900
H2056       H  0.23401443  0.19661655  0.60440165     0.11900
H2057       H  0.22265315  0.25105076  0.60334013     0.08600
H2058       H  0.23524311  0.25862548  0.58397997     0.11300
C2059       C  0.39059035  0.30794912  0.68270948    -0.03300
C2060       C  0.39085265  0.32064799  0.67348649    -0.05900
C2061       C  0.37122328  0.31338807  0.66708024    -0.21000
C2062       C  0.35095426  0.29323661  0.66963491     0.24700
C2063       C  0.35062518  0.28092318  0.67898337    -0.18500
C2064       C  0.37005908  0.28807002  0.68531872    -0.08500
C2065       C  0.33024920  0.28552484  0.66266466    -0.18800
C2066       C  0.31389693  0.26357766  0.66151798    -0.23600
C2067       C  0.29279569  0.25465452  0.65477314     0.26800
C2068       C  0.28188299  0.23240805  0.65088702    -0.20400
C2069       C  0.26162758  0.22277611  0.64491118    -0.10000
C2070       C  0.25138972  0.23496219  0.64279753    -0.10600
C2071       C  0.26201476  0.25713917  0.64684898    -0.03500
C2072       C  0.28259485  0.26696243  0.65270907    -0.18600
H2073       H  0.40604961  0.33599422  0.67106257     0.10500
H2074       H  0.37196225  0.32338531  0.65999331     0.10600
H2075       H  0.33528003  0.26579511  0.68154997     0.10200
H2076       H  0.36906476  0.27789050  0.69237811     0.11300
H2077       H  0.32895474  0.29807621  0.65803705     0.11400
H2078       H  0.31647614  0.25110048  0.66531719     0.13300
H2079       H  0.28909723  0.22237060  0.65247774     0.09900
H2080       H  0.25373349  0.20553347  0.64213083     0.11900
H2081       H  0.25453498  0.26695852  0.64537502     0.08600
H2082       H  0.29019753  0.28395487  0.65580430     0.11300
C2083       C  0.91257187  0.31759206  0.68442418    -0.03300
C2084       C  0.90919105  0.31379636  0.67278569    -0.05900
C2085       C  0.92082465  0.30619217  0.66662817    -0.21000
C2086       C  0.93661376  0.30256288  0.67182003     0.24700
C2087       C  0.94135208  0.30802218  0.68325411    -0.18500
C2088       C  0.92967242  0.31554664  0.68941900    -0.08500
C2089       C  0.94632399  0.29161504  0.66518866    -0.18800
C2090       C  0.96259883  0.28828169  0.66884498    -0.23600
C2091       C  0.96998362  0.27491300  0.66254616     0.26800
C2092       C  0.99102872  0.27790618  0.66494967    -0.20400
C2093       C  0.99804192  0.26487688  0.65959348    -0.10000
C2094       C  0.98400249  0.24824203  0.65172903    -0.10600
C2095       C  0.96287876  0.24527503  0.64942917    -0.03500
C2096       C  0.95593824  0.25826927  0.65474294    -0.18600
H2097       H  0.89658220  0.31558451  0.66854289     0.10500
H2098       H  0.91689266  0.30242259  0.65780774     0.10600
H2099       H  0.95347590  0.30582997  0.68767889     0.10200
H2100       H  0.93410762  0.31917998  0.69814294     0.11300
H2101       H  0.93924486  0.28562675  0.65689596     0.11400
H2102       H  0.97106576  0.29554065  0.67673319     0.13300
H2103       H  0.00213099  0.29041271  0.67102337     0.09900
H2104       H  0.01438926  0.26800545  0.66173375     0.11900
H2105       H  0.95153203  0.23259611  0.64348357     0.08600
H2106       H  0.93928900  0.25473194  0.65288839     0.11300
C2107       C  0.16946912  0.21264625  0.63364578    -0.03300
C2108       C  0.15031110  0.19850962  0.62706280    -0.05900
C2109       C  0.13071255  0.19892452  0.62792213    -0.21000
C2110       C  0.12929583  0.21354695  0.63537311     0.24700
C2111       C  0.14835612  0.22780925  0.64205411    -0.18500
C2112       C  0.16817257  0.22736366  0.64120131    -0.08500
C2113       C  0.10742932  0.21270251  0.63575264    -0.18800
C2114       C  0.10318484  0.22629619  0.64181820    -0.23600
C2115       C  0.08089943  0.22462824  0.64169070     0.26800
C2116       C  0.08006001  0.24347224  0.64470013    -0.20400
C2117       C  0.05964852  0.24267529  0.64467120    -0.10000
C2118       C  0.03923332  0.22283604  0.64177462    -0.10600
C2119       C  0.04002593  0.20384428  0.63895189    -0.03500
C2120       C  0.06047478  0.20468304  0.63892024    -0.18600
H2121       H  0.15058632  0.18708754  0.62108055     0.10500
H2122       H  0.11651662  0.18769784  0.62263706     0.10600
H2123       H  0.14815808  0.23933753  0.64795753     0.10200
H2124       H  0.18236814  0.23877818  0.64637834     0.11300
H2125       H  0.09410828  0.20024483  0.63038826     0.11400
H2126       H  0.11659587  0.23973963  0.64674123     0.13300
H2127       H  0.09537026  0.25906275  0.64693715     0.09900
H2128       H  0.06004694  0.25783915  0.64673074     0.11900
H2129       H  0.02476764  0.18807725  0.63694092     0.08600
H2130       H  0.06004961  0.18948388  0.63693217     0.11300
C2131       C  0.99429383  0.22313873  0.61413795    -0.03300
C2132       C  0.01317050  0.22634267  0.60844512    -0.05900
C2133       C  0.01492831  0.22960087  0.59682078    -0.21000
C2134       C  0.99760773  0.22914595  0.59064340     0.24700
C2135       C  0.97835858  0.22520856  0.59636215    -0.18500
C2136       C  0.97681960  0.22238649  0.60800927    -0.08500
C2137       C  0.00089495  0.23435468  0.57843746    -0.18800
C2138       C  0.98394615  0.22776484  0.57101993    -0.23600
C2139       C  0.98799702  0.23319791  0.55887006     0.26800
C2140       C  0.97320640  0.21749697  0.55092254    -0.20400
C2141       C  0.97772550  0.22138852  0.53943249    -0.10000
C2142       C  0.99698859  0.24124353  0.53566158    -0.10600
C2143       C  0.01090908  0.25764362  0.54361204    -0.03500
C2144       C  0.00647980  0.25366918  0.55508993    -0.18600
H2145       H  0.02692616  0.22721048  0.61305026     0.10500
H2146       H  0.03000204  0.23276334  0.59264980     0.10600
H2147       H  0.96487236  0.22519917  0.59196608     0.10200
H2148       H  0.96212491  0.21997206  0.61228072     0.11300
H2149       H  0.01806639  0.24338039  0.57537691     0.11400
H2150       H  0.96667803  0.21680556  0.57372015     0.13300
H2151       H  0.95869398  0.20171880  0.55362628     0.09900
H2152       H  0.96677704  0.20834281  0.53354344     0.11900
H2153       H  0.02586486  0.27313628  0.54099508     0.08600
H2154       H  0.01777220  0.26644662  0.56100164     0.11300
C2155       C  0.73763041  0.99826617  0.64657227    -0.03300
C2156       C  0.73461020  0.99437199  0.65821067    -0.05900
C2157       C  0.72265642  0.00143091  0.66451632    -0.21000
C2158       C  0.71330826  0.01265515  0.65942559     0.24700
C2159       C  0.71574639  0.01609672  0.64776863    -0.18500
C2160       C  0.72774247  0.00910269  0.64146067    -0.08500
C2161       C  0.70328479  0.02250586  0.66665165    -0.18800
C2162       C  0.68922868  0.02873215  0.66285705    -0.23600
C2163       C  0.68121161  0.04081911  0.66980411     0.26800
C2164       C  0.66172772  0.04031536  0.66651239    -0.20400
C2165       C  0.65461325  0.05286040  0.67225374    -0.10000
C2166       C  0.66699475  0.06656361  0.68144740    -0.10600
C2167       C  0.68652499  0.06695603  0.68470787    -0.03500
C2168       C  0.69349098  0.05427398  0.67903646    -0.18600
H2169       H  0.74242994  0.98672478  0.66254724     0.10500
H2170       H  0.72133782  0.99873952  0.67349421     0.10600
H2171       H  0.70954322  0.02533357  0.64352597     0.10200
H2172       H  0.73024249  0.01361884  0.63271658     0.11300
H2173       H  0.70779549  0.02470366  0.67547664     0.11400
H2174       H  0.68307470  0.02472319  0.65429335     0.13300
H2175       H  0.65209168  0.03038463  0.65932704     0.09900
H2176       H  0.63985102  0.05217816  0.66913604     0.11900
H2177       H  0.69678695  0.07760589  0.69157665     0.08600
H2178       H  0.70898356  0.05579352  0.68166212     0.11300
C2179       C  0.81923076  0.02895340  0.64076332    -0.03300
C2180       C  0.82738755  0.03876790  0.65134954    -0.05900
C2181       C  0.84861222  0.05841718  0.65250427    -0.21000
C2182       C  0.86234119  0.06890443  0.64312592     0.24700
C2183       C  0.85451834  0.05853211  0.63254868    -0.18500
C2184       C  0.83324284  0.03870521  0.63141485    -0.08500
C2185       C  0.88375054  0.09122096  0.64480381    -0.18800
C2186       C  0.90014635  0.10197676  0.63706702    -0.23600
C2187       C  0.92071122  0.12500631  0.63863217     0.26800
C2188       C  0.93325138  0.13682378  0.62912393    -0.20400
C2189       C  0.95200271  0.15879956  0.63002704    -0.10000
C2190       C  0.95871868  0.16958404  0.64048435    -0.10600
C2191       C  0.94673976  0.15756374  0.65006952    -0.03500
C2192       C  0.92808455  0.13553318  0.64918794    -0.18600
H2193       H  0.81699214  0.03160232  0.65871935     0.10500
H2194       H  0.85405891  0.06582555  0.66076175     0.10600
H2195       H  0.86419273  0.06602061  0.62503513     0.10200
H2196       H  0.82722905  0.03174364  0.62312606     0.11300
H2197       H  0.88559335  0.09927938  0.65281824     0.11400
H2198       H  0.89829446  0.09406328  0.62900899     0.13300
H2199       H  0.92815695  0.12922985  0.62088673     0.09900
H2200       H  0.96062436  0.16769385  0.62246471     0.11900
H2201       H  0.95165194  0.16535488  0.65826914     0.08600
H2202       H  0.91959447  0.12700863  0.65681766     0.11300
C2203       C  0.76093493  0.80767157  0.63678114    -0.03300
C2204       C  0.74730529  0.80918743  0.64493155    -0.05900
C2205       C  0.74642012  0.82862069  0.64592172    -0.21000
C2206       C  0.75918488  0.84730030  0.63891452     0.24700
C2207       C  0.77307298  0.84598772  0.63088014    -0.18500
C2208       C  0.77397106  0.82659516  0.62988888    -0.08500
C2209       C  0.75684475  0.86730216  0.63999053    -0.18800
C2210       C  0.77194305  0.88803644  0.63599407    -0.23600
C2211       C  0.77028602  0.90837737  0.63718800     0.26800
C2212       C  0.79000148  0.92969510  0.63610873    -0.20400
C2213       C  0.78952256  0.94933565  0.63660878    -0.10000
C2214       C  0.76919368  0.94840775  0.63801475    -0.10600
C2215       C  0.74935553  0.92702096  0.63923039    -0.03500
C2216       C  0.74987527  0.90727572  0.63883664    -0.18600
H2217       H  0.73672523  0.79535322  0.65041940     0.10500
H2218       H  0.73546071  0.82895471  0.65216325     0.10600
H2219       H  0.78281069  0.85956402  0.62507165     0.10200
H2220       H  0.78443439  0.82607210  0.62341315     0.11300
H2221       H  0.74254754  0.86494702  0.64467518     0.11400
H2222       H  0.78709260  0.89078934  0.63207301     0.13300
H2223       H  0.80600591  0.93120982  0.63486164     0.09900
H2224       H  0.80526187  0.96527937  0.63591510     0.11900
H2225       H  0.73325509  0.92540616  0.64014474     0.08600
H2226       H  0.73420178  0.89123980  0.63947818     0.11300
C2227       C  0.81184642  0.01033164  0.53348218    -0.03300
C2228       C  0.82789596  0.02692333  0.54074549    -0.05900
C2229       C  0.82251900  0.02805171  0.55192601    -0.21000
C2230       C  0.80120392  0.01225748  0.55618693     0.24700
C2231       C  0.78498751  0.99587801  0.54888932    -0.18500
C2232       C  0.79021643  0.99503054  0.53763722    -0.08500
C2233       C  0.79639906  0.01323522  0.56825555    -0.18800
C2234       C  0.78396874  0.99463153  0.57448984    -0.23600
C2235       C  0.78105133  0.99529527  0.58680221     0.26800
C2236       C  0.78110492  0.97903898  0.59359767    -0.20400
C2237       C  0.77841064  0.97907710  0.60521320    -0.10000
C2238       C  0.77488598  0.99494911  0.61025164    -0.10600
C2239       C  0.77434372  0.01098335  0.60344624    -0.03500
C2240       C  0.77764455  0.01131619  0.59183028    -0.18600
H2241       H  0.84472700  0.03888901  0.53781610     0.10500
H2242       H  0.83526823  0.04089328  0.55735872     0.10600
H2243       H  0.76826143  0.98373260  0.55187144     0.10200
H2244       H  0.77752720  0.98197318  0.53227335     0.11300
H2245       H  0.80498704  0.02954425  0.57234418     0.11400
H2246       H  0.77742284  0.97828890  0.57065061     0.13300
H2247       H  0.78353586  0.96643589  0.58991169     0.09900
H2248       H  0.77865936  0.96639502  0.61024716     0.11900
H2249       H  0.77167775  0.02342153  0.60713885     0.08600
H2250       H  0.77714541  0.02382110  0.58676824     0.11300
C2251       C  0.90980555  0.59130025  0.80113313    -0.03300
C2252       C  0.88832134  0.58469476  0.79706974    -0.05900
C2253       C  0.88467567  0.58571248  0.78558594    -0.21000
C2254       C  0.90235062  0.59318368  0.77790220     0.24700
C2255       C  0.92424890  0.60190698  0.78212376    -0.18500
C2256       C  0.92788384  0.60084425  0.79359993    -0.08500
C2257       C  0.89698085  0.58994726  0.76563894    -0.18800
C2258       C  0.90989257  0.58758988  0.75811525    -0.23600
C2259       C  0.90328628  0.57984055  0.74628131     0.26800
C2260       C  0.91524356  0.57193318  0.74065250    -0.20400
C2261       C  0.90905541  0.56294072  0.72986971    -0.10000
C2262       C  0.89082493  0.56179163  0.72432507    -0.10600
C2263       C  0.87935392  0.57055793  0.72968995    -0.03500
C2264       C  0.88545333  0.57944971  0.74058983    -0.18600
H2265       H  0.87402310  0.57733816  0.80265271     0.10500
H2266       H  0.86770937  0.57928825  0.78263441     0.10600
H2267       H  0.93856727  0.60886219  0.77659233     0.10200
H2268       H  0.94467076  0.60626282  0.79646616     0.11300
H2269       H  0.88072570  0.58676261  0.76305905     0.11400
H2270       H  0.92533046  0.58920817  0.76100372     0.13300
H2271       H  0.92918217  0.57219690  0.74472615     0.09900
H2272       H  0.91851604  0.55673610  0.72588008     0.11900
H2273       H  0.86522511  0.56988892  0.72560848     0.08600
H2274       H  0.87608305  0.58581036  0.74448569     0.11300
C2275       C  0.89573918  0.33321011  0.80100795    -0.03300
C2276       C  0.88517373  0.31083065  0.79734566    -0.05900
C2277       C  0.88311817  0.30587681  0.78583786    -0.21000
C2278       C  0.89139915  0.32317995  0.77785435     0.24700
C2279       C  0.90310417  0.34555411  0.78158904    -0.18500
C2280       C  0.90513656  0.35047573  0.79300613    -0.08500
C2281       C  0.88785352  0.31774226  0.76568703    -0.18800
C2282       C  0.88548299  0.33084784  0.75826941    -0.23600
C2283       C  0.88321292  0.32722627  0.74592788     0.26800
C2284       C  0.87555176  0.33859367  0.73949312    -0.20400
C2285       C  0.87504801  0.33737677  0.72777919    -0.10000
C2286       C  0.88227846  0.32478571  0.72220642    -0.10600
C2287       C  0.88930581  0.31283623  0.72867647    -0.03500
C2288       C  0.88995144  0.31417528  0.74037755    -0.18600
H2289       H  0.87785841  0.29719125  0.80333435     0.10500
H2290       H  0.87439841  0.28850635  0.78316086     0.10600
H2291       H  0.91062335  0.35935165  0.77570025     0.10200
H2292       H  0.91374193  0.36790767  0.79556453     0.11300
H2293       H  0.88627339  0.30227472  0.76294618     0.11400
H2294       H  0.88491010  0.34501879  0.76139965     0.13300
H2295       H  0.87037534  0.34888069  0.74354442     0.09900
H2296       H  0.86977325  0.34700033  0.72312170     0.11900
H2297       H  0.89449860  0.30249963  0.72472614     0.08600
H2298       H  0.89634731  0.30546717  0.74496454     0.11300
C2299       C  0.94636372  0.42168160  0.84084145    -0.03300
C2300       C  0.96615814  0.43150499  0.83448749    -0.05900
C2301       C  0.98120176  0.45476550  0.83466735    -0.21000
C2302       C  0.97669581  0.46837481  0.84132118     0.24700
C2303       C  0.95811740  0.45824647  0.84851314    -0.18500
C2304       C  0.94289588  0.43510698  0.84817306    -0.08500
C2305       C  0.98814263  0.49283630  0.83951043    -0.18800
C2306       C  0.99112978  0.50095367  0.82901507    -0.23600
C2307       C  0.98557601  0.51796193  0.82639291     0.26800
C2308       C  0.96964680  0.51282792  0.81792226    -0.20400
C2309       C  0.95832409  0.52410892  0.81740267    -0.10000
C2310       C  0.96323472  0.54110346  0.82516480    -0.10600
C2311       C  0.98112947  0.54813812  0.83274265    -0.03500
C2312       C  0.99214402  0.53648391  0.83342932    -0.18600
H2313       H  0.96928649  0.42140777  0.82885828     0.10500
H2314       H  0.99563345  0.46219120  0.82917605     0.10600
H2315       H  0.95434656  0.46841667  0.85372851     0.10200
H2316       H  0.92792623  0.42783909  0.85328807     0.11300
H2317       H  0.98719298  0.50250494  0.84634367     0.11400
H2318       H  0.99012264  0.49046930  0.82206912     0.13300
H2319       H  0.96435402  0.49861923  0.81240486     0.09900
H2320       H  0.94472536  0.51855552  0.81141691     0.11900
H2321       H  0.98525112  0.56128508  0.83878343     0.08600
H2322       H  0.00460692  0.54089477  0.83994053     0.11300
C2323       C  0.41824142  0.08406557  0.71609220    -0.03300
C2324       C  0.40773252  0.09392561  0.72131203    -0.05900
C2325       C  0.39766369  0.08640590  0.73183349    -0.21000
C2326       C  0.39772513  0.06878512  0.73738899     0.24700
C2327       C  0.40770373  0.05847717  0.73196110    -0.18500
C2328       C  0.41779273  0.06603837  0.72146719    -0.08500
C2329       C  0.38805857  0.06258287  0.74894076    -0.18800
C2330       C  0.38708735  0.04619141  0.75533015    -0.23600
C2331       C  0.37984654  0.04230497  0.76730582     0.26800
C2332       C  0.38750281  0.03176755  0.77440390    -0.20400
C2333       C  0.38363334  0.03042857  0.78597492    -0.10000
C2334       C  0.37204758  0.03967031  0.79067994    -0.10600
C2335       C  0.36274254  0.04847464  0.78349100    -0.03500
C2336       C  0.36641206  0.04961543  0.77191978    -0.18600
H2337       H  0.40796832  0.10798058  0.71746736     0.10500
H2338       H  0.39015696  0.09473365  0.73575201     0.10600
H2339       H  0.40820064  0.04481736  0.73573259     0.10200
H2340       H  0.42537052  0.05776310  0.71757666     0.11300
H2341       H  0.38251123  0.07297889  0.75250601     0.11400
H2342       H  0.39331608  0.03616948  0.75209032     0.13300
H2343       H  0.39760483  0.02566851  0.77108207     0.09900
H2344       H  0.39120356  0.02375112  0.79130980     0.11900
H2345       H  0.35360104  0.05558652  0.78688782     0.08600
H2346       H  0.35924827  0.05685133  0.76672301     0.11300
C2347       C  0.37638446  0.30731283  0.79788790    -0.03300
C2348       C  0.37661314  0.32530118  0.79264103    -0.05900
C2349       C  0.38234988  0.32994521  0.78126040    -0.21000
C2350       C  0.38816006  0.31685379  0.77497729     0.24700
C2351       C  0.38641981  0.29800084  0.78008268    -0.18500
C2352       C  0.38065719  0.29334720  0.79137186    -0.08500
C2353       C  0.39529021  0.32275278  0.76306345    -0.18800
C2354       C  0.40849120  0.31696974  0.75776653    -0.23600
C2355       C  0.41410847  0.32040147  0.74555666     0.26800
C2356       C  0.42952426  0.31528103  0.74132370    -0.20400
C2357       C  0.43325246  0.31557295  0.72975651    -0.10000
C2358       C  0.42159123  0.32096341  0.72209503    -0.10600
C2359       C  0.40728690  0.32750126  0.72642513    -0.03500
C2360       C  0.40339543  0.32699355  0.73793212    -0.18600
H2361       H  0.37338862  0.33634859  0.79743185     0.10500
H2362       H  0.38302089  0.34426415  0.77745878     0.10600
H2363       H  0.38960684  0.28680892  0.77542183     0.10200
H2364       H  0.38029684  0.27913350  0.79510815     0.11300
H2365       H  0.38975361  0.33250598  0.75873616     0.11400
H2366       H  0.41536031  0.30886155  0.76256788     0.13300
H2367       H  0.43820743  0.31029629  0.74696899     0.09900
H2368       H  0.44457559  0.31068306  0.72687918     0.11900
H2369       H  0.39867094  0.33276905  0.72093771     0.08600
H2370       H  0.39142801  0.33115094  0.74065889     0.11300
C2371       C  0.35918448  0.23325878  0.84148289    -0.03300
C2372       C  0.37141698  0.22933309  0.84943750    -0.05900
C2373       C  0.36820159  0.20813515  0.85049260    -0.21000
C2374       C  0.35295060  0.19042434  0.84351565     0.24700
C2375       C  0.33957183  0.19393660  0.83600787    -0.18500
C2376       C  0.34260803  0.21523589  0.83506517    -0.08500
C2377       C  0.35430975  0.17011592  0.84336385    -0.18800
C2378       C  0.34230436  0.15219488  0.83664910    -0.23600
C2379       C  0.35000319  0.13659673  0.83469918     0.26800
C2380       C  0.33459673  0.11338754  0.83397710    -0.20400
C2381       C  0.34219966  0.09887871  0.83208778    -0.10000
C2382       C  0.36526921  0.10750243  0.83066491    -0.10600
C2383       C  0.38052773  0.13077033  0.83113394    -0.03500
C2384       C  0.37298953  0.14514685  0.83312363    -0.18600
H2385       H  0.38414271  0.24290330  0.85456791     0.10500
H2386       H  0.37866863  0.20593465  0.85637137     0.10600
H2387       H  0.32763276  0.18079896  0.83046206     0.10200
H2388       H  0.33297183  0.21790909  0.82886264     0.11300
H2389       H  0.36775427  0.17093468  0.84832181     0.11400
H2390       H  0.32766632  0.14943754  0.83209728     0.13300
H2391       H  0.31678996  0.10651347  0.83502557     0.09900
H2392       H  0.33006530  0.08097564  0.83169783     0.11900
H2393       H  0.39835425  0.13791914  0.82996507     0.08600
H2394       H  0.38516802  0.16305933  0.83328036     0.11300
C2395       C  0.65829789  0.09610642  0.71854929    -0.03300
C2396       C  0.64490329  0.10214601  0.72429834    -0.05900
C2397       C  0.64573945  0.10382536  0.73600353    -0.21000
C2398       C  0.66028976  0.09990910  0.74223538     0.24700
C2399       C  0.67358781  0.09365684  0.73651907    -0.18500
C2400       C  0.67255689  0.09173736  0.72481577    -0.08500
C2401       C  0.66044111  0.10151102  0.75467826    -0.18800
C2402       C  0.67850344  0.10700590  0.76110404    -0.23600
C2403       C  0.67820539  0.10857046  0.77352587     0.26800
C2404       C  0.69755059  0.12505880  0.77923400    -0.20400
C2405       C  0.69736725  0.12734490  0.79090377    -0.10000
C2406       C  0.67802257  0.11269367  0.79712201    -0.10600
C2407       C  0.65898792  0.09559837  0.79143656    -0.03500
C2408       C  0.65901247  0.09364170  0.77976481    -0.18600
H2409       H  0.63351651  0.10526845  0.71980512     0.10500
H2410       H  0.63508801  0.10837376  0.74020414     0.10600
H2411       H  0.68454993  0.08991134  0.74106425     0.10200
H2412       H  0.68323845  0.08718577  0.72066786     0.11300
H2413       H  0.64542486  0.09908692  0.75864922     0.11400
H2414       H  0.69432931  0.11177286  0.75715951     0.13300
H2415       H  0.71260144  0.13663568  0.77461169     0.09900
H2416       H  0.71221006  0.14079903  0.79503961     0.11900
H2417       H  0.64374238  0.08421728  0.79597301     0.08600
H2418       H  0.64400697  0.08042511  0.77563268     0.11300
C2419       C  0.71021568  0.19858400  0.83916323    -0.03300
C2420       C  0.72912491  0.20571613  0.84599901    -0.05900
C2421       C  0.74281913  0.22822825  0.84904085    -0.21000
C2422       C  0.73813783  0.24417094  0.84519284     0.24700
C2423       C  0.71887536  0.23696357  0.83854236    -0.18500
C2424       C  0.70502760  0.21433069  0.83557191    -0.08500
C2425       C  0.75466427  0.26811554  0.84779813    -0.18800
C2426       C  0.75762084  0.28530581  0.84143257    -0.23600
C2427       C  0.77948003  0.30701528  0.84148556     0.26800
C2428       C  0.78882620  0.31712230  0.83114751    -0.20400
C2429       C  0.81194071  0.33244020  0.83024302    -0.10000
C2430       C  0.82586159  0.33791540  0.83970867    -0.10600
C2431       C  0.81595588  0.33064169  0.85031736    -0.03500
C2432       C  0.79285281  0.31529459  0.85121124    -0.18600
H2433       H  0.73335265  0.19388765  0.84900403     0.10500
H2434       H  0.75751163  0.23329956  0.85419268     0.10600
H2435       H  0.71440434  0.24862872  0.83562031     0.10200
H2436       H  0.69037677  0.20918631  0.83038030     0.11300
H2437       H  0.76727346  0.27133279  0.85408171     0.11400
H2438       H  0.74629552  0.28213039  0.83448417     0.13300
H2439       H  0.77873819  0.31132273  0.82356834     0.09900
H2440       H  0.81910729  0.33811889  0.82198565     0.11900
H2441       H  0.82625172  0.33497790  0.85779956     0.08600
H2442       H  0.78586235  0.30848410  0.85937631     0.11300
C2443       C  0.45991328  0.09422581  0.81571632    -0.03300
C2444       C  0.47659440  0.11594445  0.81918944    -0.05900
C2445       C  0.49929934  0.12344809  0.81790034    -0.21000
C2446       C  0.50552855  0.10928973  0.81320190     0.24700
C2447       C  0.48881369  0.08836725  0.80883853    -0.18500
C2448       C  0.46621865  0.08085258  0.81016439    -0.08500
C2449       C  0.52928366  0.11587787  0.81376483    -0.18800
C2450       C  0.53478414  0.10050159  0.81559152    -0.23600
C2451       C  0.55787723  0.10581570  0.81777202     0.26800
C2452       C  0.56047295  0.08849738  0.82167595    -0.20400
C2453       C  0.58172960  0.09263786  0.82421625    -0.10000
C2454       C  0.60081981  0.11424884  0.82293478    -0.10600
C2455       C  0.59836411  0.13151923  0.81884147    -0.03500
C2456       C  0.57712167  0.12735633  0.81621786    -0.18600
H2457       H  0.47212766  0.12665688  0.82338676     0.10500
H2458       H  0.51196881  0.13979359  0.82115645     0.10600
H2459       H  0.49313416  0.07748046  0.80471562     0.10200
H2460       H  0.45367120  0.06422937  0.80716684     0.11300
H2461       H  0.54196422  0.13366456  0.81393934     0.11400
H2462       H  0.52140087  0.08296181  0.81632778     0.13300
H2463       H  0.54596028  0.07171843  0.82288900     0.09900
H2464       H  0.58318341  0.07899040  0.82730592     0.11900
H2465       H  0.61289291  0.14827925  0.81763882     0.08600
H2466       H  0.57607289  0.14108751  0.81296237     0.11300
C2467       C  0.68070185  0.53743350  0.79978178    -0.03300
C2468       C  0.69617557  0.53732506  0.79243454    -0.05900
C2469       C  0.69441913  0.53933980  0.78087566    -0.21000
C2470       C  0.67696157  0.54113206  0.77634936     0.24700
C2471       C  0.66168461  0.54168200  0.78375360    -0.18500
C2472       C  0.66360710  0.53990122  0.79534426    -0.08500
C2473       C  0.67562763  0.54247659  0.76392128    -0.18800
C2474       C  0.65774627  0.53991139  0.75826287    -0.23600
C2475       C  0.65706249  0.54113419  0.74582666     0.26800
C2476       C  0.64339129  0.54781448  0.74086125    -0.20400
C2477       C  0.64263427  0.54954568  0.72920048    -0.10000
C2478       C  0.65516499  0.54411863  0.72228232    -0.10600
C2479       C  0.66832161  0.53680060  0.72719464    -0.03500
C2480       C  0.66931464  0.53534188  0.73884410    -0.18600
H2481       H  0.70942907  0.53528079  0.79561359     0.10500
H2482       H  0.70651552  0.53900445  0.77541857     0.10600
H2483       H  0.64822540  0.54348144  0.78073901     0.10200
H2484       H  0.65125536  0.53971988  0.80081360     0.11300
H2485       H  0.69021135  0.54560060  0.75922698     0.11400
H2486       H  0.64319795  0.53732323  0.76276001     0.13300
H2487       H  0.63355461  0.55206948  0.74603491     0.09900
H2488       H  0.63219493  0.55501725  0.72557655     0.11900
H2489       H  0.67821600  0.53261184  0.72202766     0.08600
H2490       H  0.67945424  0.52939953  0.74230613     0.11300
C2491       C  0.72152193  0.49372651  0.84006566    -0.03300
C2492       C  0.73989900  0.50629919  0.84727618    -0.05900
C2493       C  0.75550589  0.50011012  0.84898753    -0.21000
C2494       C  0.75327383  0.48149552  0.84338438     0.24700
C2495       C  0.73443705  0.46841771  0.83646252    -0.18500
C2496       C  0.71867878  0.47449737  0.83483671    -0.08500
C2497       C  0.77192292  0.47760440  0.84434536    -0.18800
C2498       C  0.77769197  0.46882285  0.83597707    -0.23600
C2499       C  0.80114157  0.47455970  0.83494292     0.26800
C2500       C  0.81119405  0.48057530  0.82433751    -0.20400
C2501       C  0.83456768  0.49308056  0.82339350    -0.10000
C2502       C  0.84808225  0.49962030  0.83306134    -0.10600
C2503       C  0.83800480  0.49093220  0.84349923    -0.03500
C2504       C  0.81464334  0.47827313  0.84442613    -0.18600
H2505       H  0.74233347  0.52104337  0.85151391     0.10500
H2506       H  0.76984685  0.51042163  0.85438864     0.10600
H2507       H  0.73190407  0.45365467  0.83222853     0.10200
H2508       H  0.70450247  0.46439811  0.82931456     0.11300
H2509       H  0.78368072  0.48618165  0.85119759     0.11400
H2510       H  0.76704760  0.46205152  0.82859765     0.13300
H2511       H  0.80109030  0.47762984  0.81689656     0.09900
H2512       H  0.84194860  0.49941545  0.81522901     0.11900
H2513       H  0.84811425  0.49536017  0.85105105     0.08600
H2514       H  0.80725285  0.47299586  0.85266803     0.11300
C2515       C  0.60552081  0.45747937  0.83114336    -0.03300
C2516       C  0.58967597  0.46068050  0.82576414    -0.05900
C2517       C  0.56710628  0.44355173  0.82552301    -0.21000
C2518       C  0.55982410  0.42289380  0.83069550     0.24700
C2519       C  0.57577801  0.41941789  0.83584835    -0.18500
C2520       C  0.59847290  0.43662607  0.83606248    -0.08500
C2521       C  0.53541937  0.40590151  0.83054836    -0.18800
C2522       C  0.52505758  0.38757681  0.83710462    -0.23600
C2523       C  0.50029952  0.37274033  0.83707922     0.26800
C2524       C  0.49019381  0.34953264  0.83847729    -0.20400
C2525       C  0.46679481  0.33529069  0.83799367    -0.10000
C2526       C  0.45325472  0.34416780  0.83621082    -0.10600
C2527       C  0.46339844  0.36746296  0.83520938    -0.03500
C2528       C  0.48665503  0.38161670  0.83571496    -0.18600
H2529       H  0.59465143  0.47656819  0.82186396     0.10500
H2530       H  0.55520271  0.44663804  0.82145264     0.10600
H2531       H  0.57098224  0.40359638  0.83971276     0.10200
H2532       H  0.61043057  0.43373121  0.84021312     0.11300
H2533       H  0.52525948  0.40917539  0.82495145     0.11400
H2534       H  0.53452098  0.38313242  0.84250402     0.13300
H2535       H  0.50042522  0.34241440  0.83969188     0.09900
H2536       H  0.45932965  0.31737073  0.83888548     0.11900
H2537       H  0.45335259  0.37479837  0.83404594     0.08600
H2538       H  0.49390805  0.39954029  0.83509138     0.11300
C2539       C  0.32364425  0.85926156  0.13089117    -0.03300
C2540       C  0.33895870  0.88091860  0.12681941    -0.05900
C2541       C  0.33879403  0.88605757  0.11546864    -0.21000
C2542       C  0.32345697  0.86967025  0.10789401     0.24700
C2543       C  0.30752239  0.84822317  0.11210039    -0.18500
C2544       C  0.30771113  0.84309770  0.12342939    -0.08500
C2545       C  0.32462275  0.87563748  0.09575713    -0.18800
C2546       C  0.31584425  0.86025257  0.08742303    -0.23600
C2547       C  0.31717973  0.86546134  0.07519188     0.26800
C2548       C  0.30310627  0.84784193  0.06783911    -0.20400
C2549       C  0.30456110  0.85110879  0.05624324    -0.10000
C2550       C  0.32019779  0.87211185  0.05164027    -0.10600
C2551       C  0.33392839  0.89002827  0.05893831    -0.03500
C2552       C  0.33253721  0.88674688  0.07060227    -0.18600
H2553       H  0.35141528  0.89376574  0.13235248     0.10500
H2554       H  0.35107486  0.90279039  0.11253987     0.10600
H2555       H  0.29477422  0.83527455  0.10674730     0.10200
H2556       H  0.29553839  0.82629534  0.12631201     0.11300
H2557       H  0.33357785  0.89334592  0.09370346     0.11400
H2558       H  0.30723893  0.84259896  0.08954902     0.13300
H2559       H  0.29106074  0.83130268  0.07107900     0.09900
H2560       H  0.29350080  0.83706221  0.05085528     0.11900
H2561       H  0.34634341  0.90634175  0.05561239     0.08600
H2562       H  0.34401909  0.90072720  0.07588639     0.11300
C2563       C  0.36294198  0.86386078  0.02722077    -0.03300
C2564       C  0.36715002  0.85840866  0.03790917    -0.05900
C2565       C  0.38647896  0.85772194  0.03994462    -0.21000
C2566       C  0.40190277  0.86212227  0.03132248     0.24700
C2567       C  0.39731591  0.86697371  0.02055408    -0.18500
C2568       C  0.37811463  0.86779358  0.01854602    -0.08500
C2569       C  0.42319664  0.86293618  0.03396208    -0.18800
C2570       C  0.43517724  0.85972109  0.02619914    -0.23600
C2571       C  0.45687091  0.86117092  0.02846246     0.26800
C2572       C  0.47168505  0.87424116  0.03718933    -0.20400
C2573       C  0.49250926  0.87609051  0.03850143    -0.10000
C2574       C  0.49888617  0.86467567  0.03125994    -0.10600
C2575       C  0.48403318  0.85170012  0.02254625    -0.03500
C2576       C  0.46346212  0.85013201  0.02113367    -0.18600
H2577       H  0.35609602  0.85573636  0.04484058     0.10500
H2578       H  0.38960209  0.85412630  0.04834327     0.10600
H2579       H  0.40893330  0.87104465  0.01372238     0.10200
H2580       H  0.37542452  0.87208455  0.01022096     0.11300
H2581       H  0.42878024  0.86569671  0.04263698     0.11400
H2582       H  0.42843067  0.85493101  0.01776248     0.13300
H2583       H  0.46753516  0.88350691  0.04283677     0.09900
H2584       H  0.50351769  0.88638226  0.04523153     0.11900
H2585       H  0.48848904  0.84307066  0.01662760     0.08600
H2586       H  0.45262334  0.84022561  0.01423332     0.11300
C2587       C  0.55700161  0.88964977  0.05782610    -0.03300
C2588       C  0.54121223  0.89166876  0.06397002    -0.05900
C2589       C  0.54523923  0.89827516  0.07527505    -0.21000
C2590       C  0.56521104  0.90317890  0.08069773     0.24700
C2591       C  0.58140958  0.90200730  0.07430319    -0.18500
C2592       C  0.57722708  0.89516155  0.06307120    -0.08500
C2593       C  0.56793920  0.90861975  0.09301334    -0.18800
C2594       C  0.58524144  0.91144911  0.09939664    -0.23600
C2595       C  0.58739274  0.91495778  0.11183795     0.26800
C2596       C  0.60807594  0.92134942  0.11690503    -0.20400
C2597       C  0.61043077  0.92203316  0.12858444    -0.10000
C2598       C  0.59210583  0.91627773  0.13556415    -0.10600
C2599       C  0.57169780  0.91109499  0.13055131    -0.03500
C2600       C  0.56931090  0.91037404  0.11882933    -0.18600
H2601       H  0.52534515  0.88718248  0.06019894     0.10500
H2602       H  0.53240585  0.89901143  0.07988290     0.10600
H2603       H  0.59726478  0.90596330  0.07782954     0.10200
H2604       H  0.58975201  0.89386542  0.05848141     0.11300
H2605       H  0.55473865  0.90978954  0.09695723     0.11400
H2606       H  0.59869967  0.91075601  0.09548249     0.13300
H2607       H  0.62233828  0.92501517  0.11179246     0.09900
H2608       H  0.62632195  0.92593427  0.13213629     0.11900
H2609       H  0.55714076  0.90629620  0.13568128     0.08600
H2610       H  0.55297961  0.90509640  0.11538243     0.11300
C2611       C  0.33182045  0.42013266  0.05570749    -0.03300
C2612       C  0.35326939  0.43707756  0.05945464    -0.05900
C2613       C  0.35857116  0.43986677  0.07090418    -0.21000
C2614       C  0.34272314  0.42564022  0.07890310     0.24700
C2615       C  0.32158408  0.40797256  0.07511525    -0.18500
C2616       C  0.31622534  0.40528569  0.06365328    -0.08500
C2617       C  0.34797159  0.43134953  0.09104089    -0.18800
C2618       C  0.33750630  0.41657746  0.09948386    -0.23600
C2619       C  0.33995713  0.42279128  0.11165203     0.26800
C2620       C  0.32458462  0.40672435  0.11927316    -0.20400
C2621       C  0.32423733  0.41233425  0.13050489    -0.10000
C2622       C  0.33933514  0.43420868  0.13442774    -0.10600
C2623       C  0.35564923  0.44994508  0.12701878    -0.03500
C2624       C  0.35606237  0.44432741  0.11578571    -0.18600
H2625       H  0.36558124  0.44907523  0.05362321     0.10500
H2626       H  0.37490280  0.45371095  0.07355675     0.10600
H2627       H  0.30867691  0.39690590  0.08096808     0.10200
H2628       H  0.29958023  0.39202031  0.06103415     0.11300
H2629       H  0.36047469  0.44872010  0.09292297     0.11400
H2630       H  0.32551092  0.39912361  0.09739796     0.13300
H2631       H  0.31211249  0.38994771  0.11642439     0.09900
H2632       H  0.31144947  0.39980739  0.13598336     0.11900
H2633       H  0.36763928  0.46691694  0.12980160     0.08600
H2634       H  0.36871872  0.45716519  0.11042312     0.11300
C2635       C  0.14412890  0.68230317  0.02300941    -0.03300
C2636       C  0.16366840  0.68235629  0.02563077    -0.05900
C2637       C  0.18502992  0.70233349  0.02524155    -0.21000
C2638       C  0.18764633  0.72303441  0.02235356     0.24700
C2639       C  0.16800041  0.72291462  0.01967431    -0.18500
C2640       C  0.14668337  0.70291729  0.01999615    -0.08500
C2641       C  0.21102612  0.74401819  0.02240901    -0.18800
C2642       C  0.21590827  0.76518750  0.02045054    -0.23600
C2643       C  0.23899984  0.78643830  0.02082842     0.26800
C2644       C  0.24102499  0.80667462  0.01763348    -0.20400
C2645       C  0.26169028  0.82723371  0.01818960    -0.10000
C2646       C  0.28138524  0.82848651  0.02192408    -0.10600
C2647       C  0.27948853  0.80820836  0.02505750    -0.03500
C2648       C  0.25866046  0.78751041  0.02452924    -0.18600
H2649       H  0.16250910  0.66688390  0.02789926     0.10500
H2650       H  0.19963443  0.70160061  0.02730905     0.10600
H2651       H  0.16871477  0.73810292  0.01735969     0.10200
H2652       H  0.13209015  0.70376763  0.01810681     0.11300
H2653       H  0.22472826  0.74167224  0.02428256     0.11400
H2654       H  0.20224699  0.76751243  0.01847806     0.13300
H2655       H  0.22636751  0.80668700  0.01481069     0.09900
H2656       H  0.26190156  0.84223123  0.01596337     0.11900
H2657       H  0.29411088  0.80820461  0.02789926     0.08600
H2658       H  0.25814616  0.77256609  0.02716897     0.11300
C2659       C  0.09519643  0.64569478  0.05180568    -0.03300
C2660       C  0.11537029  0.65870829  0.05783172    -0.05900
C2661       C  0.11508575  0.66171148  0.06943807    -0.21000
C2662       C  0.09468341  0.65201360  0.07529336     0.24700
C2663       C  0.07451075  0.63866680  0.06928961    -0.18500
C2664       C  0.07479956  0.63556344  0.05772972    -0.08500
C2665       C  0.09517660  0.65510074  0.08769502    -0.18800
C2666       C  0.07748864  0.65194246  0.09372485    -0.23600
C2667       C  0.07726322  0.65236341  0.10621311     0.26800
C2668       C  0.05664197  0.63929510  0.11176129    -0.20400
C2669       C  0.05590253  0.63684004  0.12342366    -0.10000
C2670       C  0.07580402  0.64761336  0.12980427    -0.10600
C2671       C  0.09625032  0.66223321  0.12435858    -0.03500
C2672       C  0.09699548  0.66461755  0.11268250    -0.18600
H2673       H  0.13138898  0.66693542  0.05358486     0.10500
H2674       H  0.13090994  0.67184055  0.07385553     0.10600
H2675       H  0.05844287  0.63004870  0.07347157     0.10200
H2676       H  0.05892223  0.62480295  0.05348365     0.11300
H2677       H  0.11068764  0.65965465  0.09199053     0.11400
H2678       H  0.06193976  0.64736008  0.08947470     0.13300
H2679       H  0.04114340  0.62993941  0.10700392     0.09900
H2680       H  0.03989061  0.62543377  0.12735365     0.11900
H2681       H  0.11187426  0.67088126  0.12904786     0.08600
H2682       H  0.11309777  0.67559500  0.10876174     0.11300
C2683       C  0.14407927  0.42220623  0.03162666    -0.03300
C2684       C  0.16170281  0.43515298  0.03927069    -0.05900
C2685       C  0.18214652  0.43627887  0.03870386    -0.21000
C2686       C  0.18607926  0.42452590  0.03047153     0.24700
C2687       C  0.16872124  0.41170850  0.02262855    -0.18500
C2688       C  0.14799603  0.41056117  0.02320039    -0.08500
C2689       C  0.20816846  0.42575893  0.03098648    -0.18800
C2690       C  0.21667771  0.41830716  0.02315435    -0.23600
C2691       C  0.23894272  0.41991553  0.02440407     0.26800
C2692       C  0.24389178  0.40694465  0.01742471    -0.20400
C2693       C  0.26414583  0.40743129  0.01857866    -0.10000
C2694       C  0.28028088  0.42112533  0.02673901    -0.10600
C2695       C  0.27554586  0.43461997  0.03343846    -0.03500
C2696       C  0.25542619  0.43412496  0.03229665    -0.18600
H2697       H  0.15948675  0.44429007  0.04590668     0.10500
H2698       H  0.19496584  0.44631619  0.04489644     0.10600
H2699       H  0.17081567  0.40216360  0.01619969     0.10200
H2700       H  0.13508944  0.40020183  0.01715665     0.11300
H2701       H  0.21787054  0.43327201  0.03855907     0.11400
H2702       H  0.20690510  0.41026435  0.01564665     0.13300
H2703       H  0.23184974  0.39608395  0.01112186     0.09900
H2704       H  0.26684701  0.39694635  0.01306838     0.11900
H2705       H  0.28761104  0.44569059  0.03968562     0.08600
H2706       H  0.25318603  0.44519947  0.03760404     0.11300
C2707       C  0.10530060  0.46566790  0.03628004    -0.03300
C2708       C  0.08952034  0.46702409  0.04286877    -0.05900
C2709       C  0.08833352  0.48627663  0.04274269    -0.21000
C2710       C  0.10297702  0.50491571  0.03610643     0.24700
C2711       C  0.11880544  0.50369166  0.02947809    -0.18500
C2712       C  0.11993196  0.48434090  0.02956496    -0.08500
C2713       C  0.10005587  0.52449321  0.03579426    -0.18800
C2714       C  0.11616117  0.54562921  0.03274621    -0.23600
C2715       C  0.11223790  0.56456440  0.03190461     0.26800
C2716       C  0.13052299  0.58699595  0.03252261    -0.20400
C2717       C  0.12739750  0.60503833  0.03109906    -0.10000
C2718       C  0.10593127  0.60105412  0.02882216    -0.10600
C2719       C  0.08764419  0.57858461  0.02843643    -0.03500
C2720       C  0.09073578  0.56068079  0.02987087    -0.18600
H2721       H  0.07801668  0.45328631  0.04820256     0.10500
H2722       H  0.07582288  0.48658165  0.04787124     0.10600
H2723       H  0.12990883  0.51735029  0.02396396     0.10200
H2724       H  0.13192444  0.48386459  0.02411366     0.11300
H2725       H  0.08391577  0.52128842  0.03854551     0.11400
H2726       H  0.13296100  0.54941252  0.03098539     0.13300
H2727       H  0.14732264  0.59057199  0.03402739     0.09900
H2728       H  0.14185642  0.62204594  0.03147069     0.11900
H2729       H  0.07071998  0.57467812  0.02700943     0.08600
H2730       H  0.07621027  0.54381255  0.02906512     0.11300
C2731       C  0.08029458  0.40071500  0.05824082    -0.03300
C2732       C  0.07176369  0.41148738  0.06441209    -0.05900
C2733       C  0.06136755  0.40293797  0.07478481    -0.21000
C2734       C  0.05916401  0.38335645  0.07925010     0.24700
C2735       C  0.06702628  0.37211291  0.07286122    -0.18500
C2736       C  0.07758344  0.38079021  0.06253118    -0.08500
C2737       C  0.04874590  0.37551712  0.09056813    -0.18800
C2738       C  0.05096951  0.36107390  0.09709362    -0.23600
C2739       C  0.04287190  0.35573715  0.10892523     0.26800
C2740       C  0.05369328  0.34909931  0.11645954    -0.20400
C2741       C  0.04865734  0.34680007  0.12792789    -0.10000
C2742       C  0.03264114  0.35107934  0.13209912    -0.10600
C2743       C  0.02045923  0.35582680  0.12444643    -0.03500
C2744       C  0.02538928  0.35798624  0.11297765    -0.18600
H2745       H  0.07372698  0.42691077  0.06140200     0.10500
H2746       H  0.05539766  0.41193867  0.07944688     0.10600
H2747       H  0.06505380  0.35659601  0.07572802     0.10200
H2748       H  0.08356823  0.37182664  0.05785236     0.11300
H2749       H  0.04033606  0.38341735  0.09396802     0.11400
H2750       H  0.06093413  0.35452304  0.09414108     0.13300
H2751       H  0.06700495  0.34693094  0.11357072     0.09900
H2752       H  0.05852132  0.34338088  0.13361516     0.11900
H2753       H  0.00794096  0.35911490  0.12740992     0.08600
H2754       H  0.01594206  0.36210784  0.10740261     0.11300
C2755       C  0.54919941  0.83313299  0.02944023    -0.03300
C2756       C  0.56393810  0.83259309  0.02163238    -0.05900
C2757       C  0.56548681  0.81355356  0.02057800    -0.21000
C2758       C  0.55234027  0.79431136  0.02717687     0.24700
C2759       C  0.53750902  0.79474282  0.03494282    -0.18500
C2760       C  0.53595939  0.81374374  0.03599803    -0.08500
C2761       C  0.55534035  0.77472584  0.02599077    -0.18800
C2762       C  0.54080997  0.75389556  0.03005267    -0.23600
C2763       C  0.54373204  0.73423824  0.02954351     0.26800
C2764       C  0.53015378  0.71587512  0.03653482    -0.20400
C2765       C  0.53202155  0.69708718  0.03669387    -0.10000
C2766       C  0.54726282  0.69555049  0.02970249    -0.10600
C2767       C  0.56070781  0.71379195  0.02248714    -0.03500
C2768       C  0.55901398  0.73292499  0.02243328    -0.18600
H2769       H  0.57467638  0.84679340  0.01637951     0.10500
H2770       H  0.57719502  0.81393590  0.01456960     0.10600
H2771       H  0.52740282  0.78076968  0.04047376     0.10200
H2772       H  0.52455949  0.81346879  0.04217132     0.11300
H2773       H  0.57021585  0.77781435  0.02161576     0.11400
H2774       H  0.52583764  0.75084642  0.03429023     0.13300
H2775       H  0.51818388  0.71617505  0.04210264     0.09900
H2776       H  0.52156872  0.68363820  0.04247235     0.11900
H2777       H  0.57288294  0.71369855  0.01704513     0.08600
H2778       H  0.56961755  0.74650049  0.01677737     0.11300
C2779       C  0.50623505  0.61085118  0.03241380    -0.03300
C2780       C  0.50734767  0.59265082  0.02853161    -0.05900
C2781       C  0.48803504  0.57101216  0.02815728    -0.21000
C2782       C  0.46713390  0.56701287  0.03163422     0.24700
C2783       C  0.46613824  0.58522456  0.03575129    -0.18500
C2784       C  0.48543612  0.60687333  0.03606965    -0.08500
C2785       C  0.44706915  0.54357811  0.03113952    -0.18800
C2786       C  0.42564087  0.53852318  0.03108071    -0.23600
C2787       C  0.40514819  0.51529904  0.03068490     0.26800
C2788       C  0.38410498  0.51287802  0.03183770    -0.20400
C2789       C  0.36425522  0.49170587  0.03156019    -0.10000
C2790       C  0.36473991  0.47215452  0.02998979    -0.10600
C2791       C  0.38580630  0.47451771  0.02885008    -0.03500
C2792       C  0.40575633  0.49576439  0.02917692    -0.18600
H2793       H  0.52306842  0.59518157  0.02556940     0.10500
H2794       H  0.48939936  0.55734813  0.02502822     0.10600
H2795       H  0.45067402  0.58289938  0.03893985     0.10200
H2796       H  0.48413950  0.62046887  0.03936106     0.11300
H2797       H  0.45039320  0.53026360  0.03058010     0.11400
H2798       H  0.42268089  0.55213608  0.03127028     0.13300
H2799       H  0.38296949  0.52748684  0.03307180     0.09900
H2800       H  0.34855843  0.49077534  0.03280710     0.11900
H2801       H  0.38702366  0.46003772  0.02754561     0.08600
H2802       H  0.42141480  0.49658222  0.02813407     0.11300
C2803       C  0.58194617  0.63259772  0.13278166    -0.03300
C2804       C  0.56373601  0.61346454  0.12771273    -0.05900
C2805       C  0.56209647  0.61139764  0.11599976    -0.21000
C2806       C  0.57846210  0.62849325  0.10912624     0.24700
C2807       C  0.59780219  0.64647054  0.11424298    -0.18500
C2808       C  0.59947455  0.64849867  0.12592617    -0.08500
C2809       C  0.57414607  0.62772706  0.09680249    -0.18800
C2810       C  0.58293580  0.64644895  0.09045386    -0.23600
C2811       C  0.57724811  0.64735026  0.07845506     0.26800
C2812       C  0.58942995  0.66813598  0.07294645    -0.20400
C2813       C  0.58385542  0.67073779  0.06204724    -0.10000
C2814       C  0.56592759  0.65257341  0.05630745    -0.10600
C2815       C  0.55408409  0.63154504  0.06159980    -0.03500
C2816       C  0.55957954  0.62893099  0.07258969    -0.18600
H2817       H  0.54997014  0.60088582  0.13274805     0.10500
H2818       H  0.54725061  0.59711200  0.11230488     0.10600
H2819       H  0.61137541  0.65944559  0.10928992     0.10200
H2820       H  0.61383830  0.66336920  0.12954950     0.11300
H2821       H  0.56207542  0.61152192  0.09318720     0.11400
H2822       H  0.59438855  0.66254547  0.09437379     0.13300
H2823       H  0.60313554  0.68263339  0.07717976     0.09900
H2824       H  0.59347108  0.68709403  0.05813626     0.11900
H2825       H  0.53999504  0.61732675  0.05741080     0.08600
H2826       H  0.54950044  0.61265889  0.07647255     0.11300
C2827       C  0.88548514  0.55078709  0.94353990    -0.03300
C2828       C  0.89454902  0.53949356  0.93832896    -0.05900
C2829       C  0.90212014  0.54436068  0.92723607    -0.21000
C2830       C  0.90102192  0.56076304  0.92104033     0.24700
C2831       C  0.89248204  0.57252832  0.92636680    -0.18500
C2832       C  0.88485230  0.56758659  0.93744616    -0.08500
C2833       C  0.90844938  0.56440988  0.90906289    -0.18800
C2834       C  0.90806614  0.57924272  0.90198907    -0.23600
C2835       C  0.91373503  0.58078637  0.88983418     0.26800
C2836       C  0.90411716  0.58864917  0.88223466    -0.20400
C2837       C  0.90731779  0.58834831  0.87065172    -0.10000
C2838       C  0.92034868  0.58029453  0.86643480    -0.10600
C2839       C  0.93114987  0.57380286  0.87407161    -0.03500
C2840       C  0.92800822  0.57416044  0.88562778    -0.18600
H2841       H  0.89528917  0.52646431  0.94266795     0.10500
H2842       H  0.90862467  0.53499645  0.92342785     0.10600
H2843       H  0.89139787  0.58544441  0.92210722     0.10200
H2844       H  0.87850497  0.57708023  0.94124428     0.11300
H2845       H  0.91359577  0.55344142  0.90581818     0.11400
H2846       H  0.90199260  0.58964931  0.90485194     0.13300
H2847       H  0.89331299  0.59416436  0.88523661     0.09900
H2848       H  0.89873968  0.59341452  0.86499006     0.11900
H2849       H  0.94151632  0.56774790  0.87109481     0.08600
H2850       H  0.93655842  0.56893213  0.89119186     0.11300
C2851       C  0.91312952  0.56447330  0.98029625    -0.03300
C2852       C  0.91465014  0.56890040  0.99187733    -0.05900
C2853       C  0.93536057  0.57903937  0.99751468    -0.21000
C2854       C  0.95530964  0.58531895  0.99178600     0.24700
C2855       C  0.95394326  0.58123356  0.98015410    -0.18500
C2856       C  0.93312323  0.57092867  0.97450325    -0.08500
C2857       C  0.97665060  0.59455424  0.99844560    -0.18800
C2858       C  0.99770278  0.60661106  0.99418941    -0.23600
C2859       C  0.01859318  0.61473281  0.00110554     0.26800
C2860       C  0.03918481  0.63345614  0.99756128    -0.20400
C2861       C  0.05921392  0.64090904  0.00362199    -0.10000
C2862       C  0.05926965  0.62958106  0.01336917    -0.10600
C2863       C  0.03856581  0.61072557  0.01680749    -0.03500
C2864       C  0.01862427  0.60345387  0.01083233    -0.18600
H2865       H  0.89970953  0.56390685  0.99671071     0.10500
H2866       H  0.93573484  0.58174062  0.00647322     0.10600
H2867       H  0.96876510  0.58539247  0.97542755     0.10200
H2868       H  0.93274500  0.56805687  0.96557212     0.11300
H2869       H  0.97476040  0.59167973  0.00742483     0.11400
H2870       H  0.99988855  0.61130344  0.98540560     0.13300
H2871       H  0.03979854  0.64236219  0.99002836     0.09900
H2872       H  0.07450394  0.65523451  0.00044956     0.11900
H2873       H  0.03788876  0.60131784  0.02414807     0.08600
H2874       H  0.00340283  0.58855045  0.01370606     0.11300
C2875       C  0.06147154  0.39626437  0.02083118    -0.03300
C2876       C  0.05276302  0.37485118  0.01613492    -0.05900
C2877       C  0.03174366  0.36363118  0.01067999    -0.21000
C2878       C  0.01907756  0.37367513  0.00954490     0.24700
C2879       C  0.02809399  0.39537955  0.01400503    -0.18500
C2880       C  0.04893510  0.40644367  0.01959164    -0.08500
C2881       C  0.99620186  0.36070383  0.00415745    -0.18800
C2882       C  0.98674035  0.37052814  0.99872535    -0.23600
C2883       C  0.96427342  0.35821241  0.99295576     0.26800
C2884       C  0.96068033  0.36907749  0.98412904    -0.20400
C2885       C  0.93979746  0.35922775  0.97880941    -0.10000
C2886       C  0.92139241  0.33812515  0.98214412    -0.10600
C2887       C  0.92492960  0.32697704  0.99096820    -0.03500
C2888       C  0.94617224  0.33691393  0.99630467    -0.18600
H2889       H  0.06184085  0.36643333  0.01701646     0.10500
H2890       H  0.02527006  0.34693493  0.00738415     0.10600
H2891       H  0.01880258  0.40362188  0.01351494     0.10200
H2892       H  0.05520018  0.42301176  0.02300921     0.11300
H2893       H  0.98744477  0.34251842  0.00420044     0.11400
H2894       H  0.99651043  0.38866569  0.99784229     0.13300
H2895       H  0.97413875  0.38544290  0.98133641     0.09900
H2896       H  0.93788003  0.36838670  0.97205450     0.11900
H2897       H  0.91140581  0.31083727  0.99388321     0.08600
H2898       H  0.94819721  0.32819382  0.00322748     0.11300
C2899       C  0.86741669  0.35871055  0.96920437    -0.03300
C2900       C  0.86512384  0.36528751  0.95841649    -0.05900
C2901       C  0.86406343  0.38450926  0.95691073    -0.21000
C2902       C  0.86491143  0.39738208  0.96615189     0.24700
C2903       C  0.86656571  0.39032514  0.97696754    -0.18500
C2904       C  0.86774685  0.37125423  0.97845134    -0.08500
C2905       C  0.86545142  0.41870631  0.96421059    -0.18800
C2906       C  0.85968983  0.42855164  0.97208667    -0.23600
C2907       C  0.86083216  0.45026393  0.97063229     0.26800
C2908       C  0.84895916  0.45547507  0.97817055    -0.20400
C2909       C  0.84999875  0.47586750  0.97747599    -0.10000
C2910       C  0.86310999  0.49184600  0.96923775    -0.10600
C2911       C  0.87528372  0.48678516  0.96178461    -0.03500
C2912       C  0.87415071  0.46627335  0.96243833    -0.18600
H2913       H  0.86536790  0.35629091  0.95111266     0.10500
H2914       H  0.86303460  0.38960444  0.94847419     0.10600
H2915       H  0.86795324  0.39995939  0.98431974     0.10200
H2916       H  0.86974672  0.36673468  0.98686019     0.11300
H2917       H  0.87026799  0.42612432  0.95592950     0.11400
H2918       H  0.85305003  0.41998625  0.98000426     0.13300
H2919       H  0.83882161  0.44369768  0.98468765     0.09900
H2920       H  0.84079354  0.47922611  0.98356951     0.11900
H2921       H  0.88559040  0.49852610  0.95535497     0.08600
H2922       H  0.88406762  0.46329097  0.95664192     0.11300
C2923       C  0.88532637  0.32448278  0.94447763    -0.03300
C2924       C  0.90521584  0.34136798  0.93937888    -0.05900
C2925       C  0.90767415  0.34197199  0.92778356    -0.21000
C2926       C  0.89042717  0.32565098  0.92095521     0.24700
C2927       C  0.87010069  0.30912637  0.92598569    -0.18500
C2928       C  0.86755868  0.30865082  0.93767859    -0.08500
C2929       C  0.89442591  0.32712206  0.90867021    -0.18800
C2930       C  0.88349316  0.30977507  0.90146891    -0.23600
C2931       C  0.88817024  0.31229240  0.88921996     0.26800
C2932       C  0.87081560  0.29846828  0.88169354    -0.20400
C2933       C  0.87382482  0.30228786  0.87013486    -0.10000
C2934       C  0.89436806  0.31990461  0.86589486    -0.10600
C2935       C  0.91235352  0.33240081  0.87336026    -0.03500
C2936       C  0.90932783  0.32861644  0.88489870    -0.18600
H2937       H  0.91898650  0.35416631  0.94438764     0.10500
H2938       H  0.92333344  0.35510611  0.92414104     0.10600
H2939       H  0.85614169  0.29669949  0.92096245     0.10200
H2940       H  0.85198697  0.29560451  0.94141762     0.11300
H2941       H  0.90744977  0.34339077  0.90549604     0.11400
H2942       H  0.87014438  0.29352199  0.90447873     0.13300
H2943       H  0.85449321  0.28550765  0.88479177     0.09900
H2944       H  0.85962096  0.29239848  0.86459594     0.11900
H2945       H  0.92841944  0.34602980  0.87035314     0.08600
H2946       H  0.92345290  0.33890937  0.89039686     0.11300
C2947       C  0.57165318  0.91465175  0.02048063    -0.03300
C2948       C  0.57441753  0.91467199  0.00880957    -0.05900
C2949       C  0.58482445  0.93474432  0.00268794    -0.21000
C2950       C  0.59314591  0.95557977  0.00799317     0.24700
C2951       C  0.59081009  0.95571521  0.01973659    -0.18500
C2952       C  0.58004886  0.93546299  0.02587869    -0.08500
C2953       C  0.60236103  0.97617246  0.00075967    -0.18800
C2954       C  0.61576510  0.99773189  0.00425973    -0.23600
C2955       C  0.62344816  0.01772276  0.99670745     0.26800
C2956       C  0.64307445  0.03844561  0.99933751    -0.20400
C2957       C  0.65008073  0.05769548  0.99273122    -0.10000
C2958       C  0.63743480  0.05691287  0.98330611    -0.10600
C2959       C  0.61776091  0.03606456  0.98075219    -0.03500
C2960       C  0.61090074  0.01687203  0.98728185    -0.18600
H2961       H  0.56794640  0.89902997  0.00431650     0.10500
H2962       H  0.58613050  0.93392643  0.99367687     0.10600
H2963       H  0.59663340  0.97128884  0.02416455     0.10200
H2964       H  0.57834276  0.93609260  0.03486584     0.11300
H2965       H  0.59810365  0.97317515  0.99191411     0.11400
H2966       H  0.62177464  0.00098441  0.01286380     0.13300
H2967       H  0.65304833  0.03979589  0.00659178     0.09900
H2968       H  0.66517295  0.07306222  0.99525476     0.11900
H2969       H  0.60737676  0.03469276  0.97368221     0.08600
H2970       H  0.59533200  0.00157167  0.98508146     0.11300
C2971       C  0.83674320  0.27860537  0.97295087    -0.03300
C2972       C  0.83592668  0.25871337  0.97563446    -0.05900
C2973       C  0.81541890  0.23788932  0.97585624    -0.21000
C2974       C  0.79485195  0.23602578  0.97344391     0.24700
C2975       C  0.79556857  0.25597908  0.97085304    -0.18500
C2976       C  0.81620214  0.27688475  0.97057039    -0.08500
C2977       C  0.77351914  0.21296277  0.97384872    -0.18800
C2978       C  0.75247244  0.20780997  0.97112563    -0.23600
C2979       C  0.73145459  0.18447372  0.97149007     0.26800
C2980       C  0.71138005  0.18087903  0.96677516    -0.20400
C2981       C  0.69135644  0.15954051  0.96687046    -0.10000
C2982       C  0.69059371  0.14083257  0.97166994    -0.10600
C2983       C  0.71066883  0.14450665  0.97650211    -0.03500
C2984       C  0.73064080  0.16587647  0.97648036    -0.18600
H2985       H  0.85125167  0.25908926  0.97734251     0.10500
H2986       H  0.81569546  0.22303599  0.97787558     0.10600
H2987       H  0.78035275  0.25570061  0.96905491     0.10200
H2988       H  0.81599461  0.29177944  0.96860272     0.11300
H2989       H  0.77568325  0.19944679  0.97636660     0.11400
H2990       H  0.75030692  0.22113400  0.96822571     0.13300
H2991       H  0.71114550  0.19471694  0.96295429     0.09900
H2992       H  0.67645319  0.15794789  0.96325908     0.11900
H2993       H  0.71127911  0.13080411  0.98017608     0.08600
H2994       H  0.74528883  0.16753272  0.98043728     0.11300
C2995       C  0.64937071  0.08884529  0.94397614    -0.03300
C2996       C  0.63512027  0.06852520  0.93829721    -0.05900
C2997       C  0.63534851  0.06746350  0.92657524    -0.21000
C2998       C  0.65014600  0.08652487  0.92024161     0.24700
C2999       C  0.66457006  0.10685064  0.92591300    -0.18500
C3000       C  0.66406900  0.10800499  0.93764795    -0.08500
C3001       C  0.64891912  0.08501888  0.90775614    -0.18800
C3002       C  0.66664084  0.09771587  0.90099428    -0.23600
C3003       C  0.66494299  0.09744127  0.88849715     0.26800
C3004       C  0.68416745  0.10415589  0.88199552    -0.20400
C3005       C  0.68374873  0.10652778  0.87032062    -0.10000
C3006       C  0.66419406  0.10269857  0.86493936    -0.10600
C3007       C  0.64476717  0.09526353  0.87138774    -0.03500
C3008       C  0.64508250  0.09257328  0.88300302    -0.18600
H3009       H  0.62333598  0.05354667  0.94290294     0.10500
H3010       H  0.62385117  0.05167820  0.92242633     0.10600
H3011       H  0.67579242  0.12201250  0.92129077     0.10200
H3012       H  0.67527591  0.12388865  0.94177631     0.11300
H3013       H  0.63290186  0.07250903  0.90405397     0.11400
H3014       H  0.68312460  0.10864613  0.90472472     0.13300
H3015       H  0.69972628  0.10813960  0.88600225     0.09900
H3016       H  0.69904367  0.11251739  0.86560082     0.11900
H3017       H  0.62947485  0.09231050  0.86749414     0.08600
H3018       H  0.63005709  0.08784344  0.88769667     0.11300
C3019       C  0.47452198  0.10442875  0.96240871    -0.03300
C3020       C  0.49072333  0.12063866  0.96981225    -0.05900
C3021       C  0.51156650  0.12283784  0.97138125    -0.21000
C3022       C  0.51707242  0.10915022  0.96552436     0.24700
C3023       C  0.50109576  0.09304199  0.95804264    -0.18500
C3024       C  0.48008762  0.09066458  0.95655007    -0.08500
C3025       C  0.53884023  0.11101486  0.96808057    -0.18800
C3026       C  0.55035633  0.10659581  0.96059433    -0.23600
C3027       C  0.57160630  0.10745094  0.96335074     0.26800
C3028       C  0.58656114  0.11069950  0.95469051    -0.20400
C3029       C  0.60551738  0.10940397  0.95677077    -0.10000
C3030       C  0.60985129  0.10450220  0.96756470    -0.10600
C3031       C  0.59526750  0.10197134  0.97630858    -0.03500
C3032       C  0.57641419  0.10340352  0.97424501    -0.18600
H3033       H  0.48716302  0.13127989  0.97472409     0.10500
H3034       H  0.52340981  0.13520759  0.97729977     0.10600
H3035       H  0.50451969  0.08180925  0.95357878     0.10200
H3036       H  0.46831228  0.07797289  0.95079579     0.11300
H3037       H  0.54597496  0.11707437  0.97636392     0.11400
H3038       H  0.54426074  0.10260901  0.95200887     0.13300
H3039       H  0.58327607  0.11374009  0.94620729     0.09900
H3040       H  0.61610367  0.11111666  0.94979234     0.11900
H3041       H  0.59812640  0.09834224  0.98474947     0.08600
H3042       H  0.56516902  0.10037157  0.98112486     0.11300
C3043       C  0.38699390  0.04156330  0.85919383    -0.03300
C3044       C  0.36698836  0.03220945  0.86533537    -0.05900
C3045       C  0.36753985  0.03249802  0.87709801    -0.21000
C3046       C  0.38803515  0.04193338  0.88298065     0.24700
C3047       C  0.40789859  0.05004735  0.87677129    -0.18500
C3048       C  0.40733427  0.04980329  0.86504695    -0.08500
C3049       C  0.38822678  0.04523651  0.89538287    -0.18800
C3050       C  0.40593482  0.05081425  0.90216736    -0.23600
C3051       C  0.40764102  0.05762891  0.91419379     0.26800
C3052       C  0.42504212  0.05931653  0.92084942    -0.20400
C3053       C  0.42859850  0.06754639  0.93185883    -0.10000
C3054       C  0.41496181  0.07450614  0.93649877    -0.10600
C3055       C  0.39722755  0.07236197  0.92992934    -0.03500
C3056       C  0.39365370  0.06414696  0.91893170    -0.18600
H3057       H  0.35108667  0.02594219  0.86107661     0.10500
H3058       H  0.35196724  0.02617667  0.88161657     0.10600
H3059       H  0.42414147  0.05784433  0.88082021     0.10200
H3060       H  0.42307339  0.05723088  0.86055650     0.11300
H3061       H  0.37320468  0.04347820  0.89892714     0.11400
H3062       H  0.42019763  0.05076032  0.89880414     0.13300
H3063       H  0.43626506  0.05467463  0.91743706     0.09900
H3064       H  0.44255829  0.06919475  0.93655590     0.11900
H3065       H  0.38616230  0.07727479  0.93324231     0.08600
H3066       H  0.38034186  0.06368147  0.91413753     0.11300
C3067       C  0.33620062  0.91373409  0.01441480    -0.03300
C3068       C  0.32370447  0.91473755  0.00538299    -0.05900
C3069       C  0.33106252  0.93496229  0.99965895    -0.21000
C3070       C  0.35121245  0.95486545  0.00261355     0.24700
C3071       C  0.36352526  0.95412218  0.01176006    -0.18500
C3072       C  0.35611590  0.93393587  0.01753787    -0.08500
C3073       C  0.35849560  0.97594367  0.99606314    -0.18800
C3074       C  0.38006269  0.99342621  0.99530119    -0.23600
C3075       C  0.38777632  0.01377149  0.98809343     0.26800
C3076       C  0.41009643  0.02570055  0.98426686    -0.20400
C3077       C  0.41827489  0.04486158  0.97755093    -0.10000
C3078       C  0.40455255  0.05305664  0.97466148    -0.10600
C3079       C  0.38229581  0.04145625  0.97864820    -0.03500
C3080       C  0.37393477  0.02194389  0.98521633    -0.18600
H3081       H  0.30833587  0.90010203  0.00249197     0.10500
H3082       H  0.32105826  0.93494620  0.99272341     0.10600
H3083       H  0.37879885  0.96910919  0.01457586     0.10200
H3084       H  0.36618160  0.93402233  0.02445922     0.11300
H3085       H  0.34575760  0.97633290  0.99108035     0.11400
H3086       H  0.39307942  0.99220278  0.99950444     0.13300
H3087       H  0.42127300  0.02005464  0.98641819     0.09900
H3088       H  0.43559106  0.05357402  0.97480412     0.11900
H3089       H  0.37129840  0.04736159  0.97659496     0.08600
H3090       H  0.35680273  0.01357783  0.98818871     0.11300
C3091       C  0.42363539  0.27032696  0.96484918    -0.03300
C3092       C  0.43855078  0.26850456  0.95774345    -0.05900
C3093       C  0.43866705  0.24875204  0.95708255    -0.21000
C3094       C  0.42389046  0.22981304  0.96348240     0.24700
C3095       C  0.40905958  0.23143384  0.97079244    -0.18500
C3096       C  0.40894503  0.25145173  0.97147239    -0.08500
C3097       C  0.42429419  0.20886911  0.96166757    -0.18800
C3098       C  0.41558755  0.19084842  0.96858287    -0.23600
C3099       C  0.41741753  0.17062549  0.96667908     0.26800
C3100       C  0.40609648  0.15210615  0.97395463    -0.20400
C3101       C  0.40759091  0.13304177  0.97269508    -0.10000
C3102       C  0.42063295  0.13184114  0.96408859    -0.10600
C3103       C  0.43200083  0.15045216  0.95684781    -0.03500
C3104       C  0.43045291  0.16941339  0.95807622    -0.18600
H3105       H  0.44997587  0.28244120  0.95242909     0.10500
H3106       H  0.45030681  0.24822299  0.95136322     0.10600
H3107       H  0.39711021  0.21716391  0.97575184     0.10200
H3108       H  0.39688310  0.25170396  0.97693898     0.11300
H3109       H  0.43293954  0.20890788  0.95418250     0.11400
H3110       H  0.40702102  0.19091634  0.97610957     0.13300
H3111       H  0.39601001  0.15237744  0.98071434     0.09900
H3112       H  0.39854608  0.11952659  0.97859010     0.11900
H3113       H  0.44231232  0.15034068  0.95015983     0.08600
H3114       H  0.43988012  0.18304663  0.95227999     0.11300
C3115       C  0.36615084  0.32056365  0.86613801    -0.03300
C3116       C  0.34896423  0.30385487  0.87282354    -0.05900
C3117       C  0.35069728  0.30525955  0.88454288    -0.21000
C3118       C  0.36968482  0.32327400  0.88983149     0.24700
C3119       C  0.38564518  0.34116978  0.88313536    -0.18500
C3120       C  0.38388883  0.33977784  0.87142847    -0.08500
C3121       C  0.37297282  0.32161812  0.90210849    -0.18800
C3122       C  0.39304118  0.33358609  0.90741688    -0.23600
C3123       C  0.39725944  0.32869324  0.91901465     0.26800
C3124       C  0.41558626  0.34569420  0.92514071    -0.20400
C3125       C  0.42151367  0.34112466  0.93557642    -0.10000
C3126       C  0.40949544  0.31932023  0.94001175    -0.10600
C3127       C  0.39097267  0.30236171  0.93397332    -0.03500
C3128       C  0.38489299  0.30696934  0.92361060    -0.18600
H3129       H  0.33504734  0.28886825  0.86902578     0.10500
H3130       H  0.33788635  0.29142227  0.88946301     0.10600
H3131       H  0.40002082  0.35588957  0.88679738     0.10200
H3132       H  0.39731375  0.35309394  0.86652323     0.11300
H3133       H  0.35862802  0.30861286  0.90671656     0.11400
H3134       H  0.40748423  0.34691042  0.90303644     0.13300
H3135       H  0.42558502  0.36249624  0.92174670     0.09900
H3136       H  0.43599582  0.35448339  0.93998038     0.11900
H3137       H  0.38125513  0.28543128  0.93722852     0.08600
H3138       H  0.37107091  0.29323582  0.91905305     0.11300
C3139       C  0.33844629  0.39829925  0.01830317    -0.03300
C3140       C  0.36176477  0.40736292  0.01831962    -0.05900
C3141       C  0.37100661  0.39660611  0.01280045    -0.21000
C3142       C  0.35743706  0.37640681  0.00693066     0.24700
C3143       C  0.33404049  0.36714041  0.00681105    -0.18500
C3144       C  0.32470369  0.37791353  0.01244484    -0.08500
C3145       C  0.36895182  0.36642232  0.00100440    -0.18800
C3146       C  0.35898924  0.34714219  0.99495311    -0.23600
C3147       C  0.37215004  0.33901661  0.98896394     0.26800
C3148       C  0.36223123  0.31600086  0.98660063    -0.20400
C3149       C  0.37427094  0.30811623  0.98093372    -0.10000
C3150       C  0.39644063  0.32314181  0.97732430    -0.10600
C3151       C  0.40620531  0.34608592  0.97965177    -0.03500
C3152       C  0.39428984  0.35394308  0.98528446    -0.18600
H3153       H  0.37325296  0.42309998  0.02239747     0.10500
H3154       H  0.38907764  0.40437042  0.01303970     0.10600
H3155       H  0.32282768  0.35165447  0.00240586     0.10200
H3156       H  0.30665318  0.37004653  0.01227043     0.11300
H3157       H  0.38710327  0.37573697  0.00184223     0.11400
H3158       H  0.34081842  0.33668248  0.99451177     0.13300
H3159       H  0.34512798  0.30406498  0.98917872     0.09900
H3160       H  0.36606117  0.29035624  0.97915402     0.11900
H3161       H  0.42325244  0.35815028  0.97717247     0.08600
H3162       H  0.40246426  0.37184630  0.98652965     0.11300
C3163       C  0.83029016  0.54077689  0.97339624    -0.03300
C3164       C  0.83038537  0.55576288  0.98128656    -0.05900
C3165       C  0.81125004  0.55695557  0.98290229    -0.21000
C3166       C  0.79129823  0.54316102  0.97682222     0.24700
C3167       C  0.79106255  0.52809076  0.96898438    -0.18500
C3168       C  0.81019718  0.52695403  0.96732926    -0.08500
C3169       C  0.77173629  0.54599335  0.97842864    -0.18800
C3170       C  0.75023882  0.53045385  0.97549324    -0.23600
C3171       C  0.73061293  0.53341102  0.97639617     0.26800
C3172       C  0.70885462  0.51472787  0.97437467    -0.20400
C3173       C  0.69007778  0.51680274  0.97416598    -0.10000
C3174       C  0.69241625  0.53767524  0.97597483    -0.10600
C3175       C  0.71407343  0.55629457  0.97834886    -0.03500
C3176       C  0.73290480  0.55424196  0.97853266    -0.18600
H3177       H  0.84516580  0.56704258  0.98612557     0.10500
H3178       H  0.81212660  0.56892636  0.98891703     0.10600
H3179       H  0.77641578  0.51758043  0.96384035     0.10200
H3180       H  0.80944920  0.51542088  0.96107637     0.11300
H3181       H  0.77539880  0.56144646  0.98238862     0.11400
H3182       H  0.74655323  0.51443124  0.97226476     0.13300
H3183       H  0.70637277  0.49841910  0.97274143     0.09900
H3184       H  0.67371078  0.50199510  0.97249700     0.11900
H3185       H  0.71668956  0.57274730  0.97960657     0.08600
H3186       H  0.74920411  0.56923569  0.97997417     0.11300
C3187       C  0.61149837  0.49465797  0.96982530    -0.03300
C3188       C  0.61339497  0.47580220  0.96983996    -0.05900
C3189       C  0.59423806  0.45415367  0.96841773    -0.21000
C3190       C  0.57281324  0.45089152  0.96687079     0.24700
C3191       C  0.57120444  0.46997798  0.96639522    -0.18500
C3192       C  0.59022935  0.49147368  0.96792510    -0.08500
C3193       C  0.55272054  0.42751618  0.96557671    -0.18800
C3194       C  0.53131738  0.42202992  0.96717860    -0.23600
C3195       C  0.51068823  0.39897641  0.96607552     0.26800
C3196       C  0.48966531  0.39680362  0.96645192    -0.20400
C3197       C  0.46967634  0.37576698  0.96573693    -0.10000
C3198       C  0.46988836  0.35596161  0.96468637    -0.10600
C3199       C  0.49106062  0.35818093  0.96420796    -0.03500
C3200       C  0.51113729  0.37931611  0.96492605    -0.18600
H3201       H  0.62958341  0.47775323  0.97117823     0.10500
H3202       H  0.59612576  0.43986361  0.96866111     0.10600
H3203       H  0.55541663  0.46860181  0.96468173     0.10200
H3204       H  0.58831732  0.50573304  0.96744644     0.11300
H3205       H  0.55595723  0.41452813  0.96347561     0.11400
H3206       H  0.52842049  0.43512365  0.96957838     0.13300
H3207       H  0.48863650  0.41154954  0.96733074     0.09900
H3208       H  0.45418883  0.37538348  0.96613594     0.11900
H3209       H  0.49236261  0.34367587  0.96314533     0.08600
H3210       H  0.52682333  0.37996528  0.96466887     0.11300
C3211       C  0.67259746  0.54186598  0.86657563    -0.03300
C3212       C  0.69133154  0.56107594  0.87128340    -0.05900
C3213       C  0.69150693  0.56616608  0.88269578    -0.21000
C3214       C  0.67305951  0.55207079  0.88959709     0.24700
C3215       C  0.65385705  0.53367472  0.88465226    -0.18500
C3216       C  0.65370378  0.52859235  0.87333891    -0.08500
C3217       C  0.67409318  0.55670001  0.90188864    -0.18800
C3218       C  0.66239235  0.54008781  0.90940555    -0.23600
C3219       C  0.66178603  0.54283696  0.92179610     0.26800
C3220       C  0.65009531  0.52324990  0.92828255    -0.20400
C3221       C  0.64811938  0.52434046  0.93986568    -0.10000
C3222       C  0.65793725  0.54510830  0.94540209    -0.10600
C3223       C  0.66957447  0.56485035  0.93895521    -0.03500
C3224       C  0.67149526  0.56376010  0.92726892    -0.18600
H3225       H  0.70612019  0.57165236  0.86627088     0.10500
H3226       H  0.70636728  0.58068367  0.88622604     0.10600
H3227       H  0.63886385  0.52300818  0.88949678     0.10200
H3228       H  0.63885796  0.51385496  0.86994406     0.11300
H3229       H  0.68532787  0.57382326  0.90471324     0.11400
H3230       H  0.65272665  0.52294187  0.90633127     0.13300
H3231       H  0.64218814  0.50687435  0.92435032     0.09900
H3232       H  0.63841954  0.50874344  0.94442368     0.11900
H3233       H  0.67740063  0.58114075  0.94294916     0.08600
H3234       H  0.68040952  0.57930102  0.92262704     0.11300
C3235       C  0.64577185  0.57418113  0.98231810    -0.03300
C3236       C  0.65655447  0.58529959  0.99239307    -0.05900
C3237       C  0.64932564  0.59743258  0.99846707    -0.21000
C3238       C  0.63123869  0.59904242  0.99470529     0.24700
C3239       C  0.62083129  0.58846460  0.98450486    -0.18500
C3240       C  0.62801649  0.57633416  0.97844593    -0.08500
C3241       C  0.62280741  0.61044346  0.00201472    -0.18800
C3242       C  0.60916911  0.61739173  0.99841456    -0.23600
C3243       C  0.59942491  0.62756575  0.00569184     0.26800
C3244       C  0.58951784  0.63821235  0.00049454    -0.20400
C3245       C  0.57897124  0.64685326  0.00680621    -0.10000
C3246       C  0.57774656  0.64485977  0.01854035    -0.10600
C3247       C  0.58779250  0.63439247  0.02379055    -0.03500
C3248       C  0.59852303  0.62589776  0.01748389    -0.18600
H3249       H  0.66994250  0.58404617  0.99597280     0.10500
H3250       H  0.65763935  0.60520349  0.00631976     0.10600
H3251       H  0.60649261  0.58861598  0.98134518     0.10200
H3252       H  0.61898212  0.56773846  0.97086706     0.11300
H3253       H  0.62838863  0.61336859  0.01068116     0.11400
H3254       H  0.60501809  0.61595178  0.98956749     0.13300
H3255       H  0.58968764  0.63963125  0.99144706     0.09900
H3256       H  0.57114733  0.65447532  0.00245578     0.11900
H3257       H  0.58731917  0.63268950  0.03282370     0.08600
H3258       H  0.60549490  0.61754738  0.02189711     0.11300
loop_ 
_geom_bond_atom_site_label_1 
_geom_bond_atom_site_label_2 
_geom_bond_distance 
_geom_bond_site_symmetry_2 
_ccdc_geom_bond_type 
C1            C2   1.549       .  S
C1            C7   1.534       .  S
C1            C5   1.547       .  S
C1         C3235   1.543       .  S
C2            H9   1.082       .  S
C2            C3   1.374       .  D
C3            C4   1.547       .  S
C3         C3174   1.504       .  S
C4            C8   1.540       .  S
C4            C6   1.544       .  S
C4           H10   1.107       .  S
C5           H11   1.085       .  S
C5            C6   1.374       .  D
C6         C3222   1.496       .  S
C7           H12   1.087       .  S
C7            C8   1.363       .  D
C8         C3187   1.492       .  S
C13          C14   1.544       .  S
C13          C19   1.535       .  S
C13          C17   1.553       .  S
C13        C3091   1.545       .  S
C14          H21   1.084       .  S
C14          C15   1.373       .  D
C15          C16   1.548       .  S
C15        C3198   1.510       .  S
C16          C20   1.537       .  S
C16          C18   1.546       .  S
C16          H22   1.105       .  S
C17          H23   1.083       .  S
C17          C18   1.378       .  D
C18        C3150   1.502       .  S
C19          H24   1.086       .  S
C19          C20   1.362       .  D
C20        C3126   1.489       .  S
C25          C26   1.552       .  S
C25          C31   1.535       .  S
C25          C29   1.541       .  S
C25        C3102   1.547       .  S
C26          H33   1.082       .  S
C26          C27   1.373       .  D
C27          C28   1.546       .  S
C27        C3078   1.501       .  S
C28          C32   1.549       .  S
C28          C30   1.547       .  S
C28          H34   1.108       .  S
C29          H35   1.085       .  S
C29          C30   1.372       .  D
C30        C3019   1.506       .  S
C31          H36   1.086       .  S
C31          C32   1.367       .  D
C32        C3054   1.498       .  S
C37          C38   1.541       .  S
C37          C43   1.535       .  S
C37          C41   1.551       .  S
C37        C2958   1.549       .  S
C38          H45   1.086       .  S
C38          C39   1.368       .  D
C39          C40   1.541       .  S
C39        C2995   1.493       .  S
C40          C44   1.549       .  S
C40          C42   1.554       .  S
C40          H46   1.106       .  S
C41          H47   1.080       .  S
C41          C42   1.380       .  D
C42        C2982   1.519       .  S
C43          H48   1.086       .  S
C43          C44   1.368       .  D
C44        C3030   1.500       .  S
C49          C50   1.550       .  S
C49          C55   1.533       .  S
C49          C53   1.532       .  S
C49        C2886   1.542       .  S
C50          H57   1.083       .  S
C50          C51   1.386       .  D
C51          C52   1.558       .  S
C51        C2971   1.513       .  S
C52          C56   1.546       .  S
C52          C54   1.540       .  S
C52          H58   1.110       .  S
C53          H59   1.087       .  S
C53          C54   1.362       .  D
C54        C2923   1.484       .  S
C55          H60   1.087       .  S
C55          C56   1.363       .  D
C56        C2899   1.492       .  S
C61          C62   1.533       .  S
C61          C67   1.551       .  S
C61          C65   1.539       .  S
C61        C3163   1.545       .  S
C62          H69   1.086       .  S
C62          C63   1.367       .  D
C63          C64   1.547       .  S
C63        C2827   1.496       .  S
C64          C68   1.547       .  S
C64          C66   1.549       .  S
C64          H70   1.107       .  S
C65          H71   1.085       .  S
C65          C66   1.371       .  D
C66        C2910   1.502       .  S
C67          H72   1.081       .  S
C67          C68   1.375       .  D
C68        C2851   1.505       .  S
C73          C74   1.553       .  S
C73          C79   1.534       .  S
C73          C77   1.540       .  S
C73        C2766   1.542       .  S
C74          H81   1.083       .  S
C74          C75   1.380       .  D
C75          C76   1.544       .  S
C75        C3246   1.501       .  S
C76          C80   1.538       .  S
C76          C78   1.541       .  S
C76          H82   1.109       .  S
C77          H83   1.086       .  S
C77          C78   1.367       .  D
C78        C2779   1.490       .  S
C79          H84   1.086       .  S
C79          C80   1.364       .  D
C80        C2814   1.487       .  S
C85          C86   1.555       .  S
C85          C91   1.536       .  S
C85          C89   1.545       .  S
C85        C2683   1.549       .  S
C86          H93   1.083       .  S
C86          C87   1.380       .  D
C87          C88   1.544       .  S
C87        C2875   1.502       .  S
C88          C92   1.543       .  S
C88          C90   1.545       .  S
C88          H94   1.108       .  S
C89          H95   1.085       .  S
C89          C90   1.371       .  D
C90        C2707   1.505       .  S
C91          H96   1.086       .  S
C91          C92   1.363       .  D
C92        C2731   1.493       .  S
C97          C98   1.536       .  S
C97         C103   1.531       .  S
C97         C101   1.547       .  S
C97        C2862   1.542       .  S
C98         H105   1.085       .  S
C98          C99   1.369       .  D
C99         C100   1.547       .  S
C99        C2659   1.496       .  S
C100        C104   1.551       .  S
C100        C102   1.556       .  S
C100        H106   1.108       .  S
C101        H107   1.082       .  S
C101        C102   1.377       .  D
C102       C2635   1.510       .  S
C103        H108   1.086       .  S
C103        C104   1.366       .  D
C104       C2718   1.504       .  S
C109        C110   1.539       .  S
C109        C115   1.538       .  S
C109        C113   1.550       .  S
C109       C2694   1.547       .  S
C110        H117   1.085       .  S
C110        C111   1.369       .  D
C111        C112   1.543       .  S
C111       C2790   1.500       .  S
C112        C116   1.541       .  S
C112        C114   1.556       .  S
C112        H118   1.105       .  S
C113        H119   1.081       .  S
C113        C114   1.380       .  D
C114       C3139   1.514       .  S
C115        H120   1.086       .  S
C115        C116   1.365       .  D
C116       C2611   1.494       .  S
C121        C122   1.534       .  S
C121        C127   1.550       .  S
C121        C125   1.539       .  S
C121       C2755   1.546       .  S
C122        H129   1.087       .  S
C122        C123   1.364       .  D
C123        C124   1.545       .  S
C123       C2587   1.489       .  S
C124        C128   1.550       .  S
C124        C126   1.549       .  S
C124        H130   1.110       .  S
C125        H131   1.086       .  S
C125        C126   1.372       .  D
C126       C2574   1.501       .  S
C127        H132   1.082       .  S
C127        C128   1.375       .  D
C128       C2947   1.505       .  S
C133        C134   1.551       .  S
C133        C139   1.534       .  S
C133        C137   1.546       .  S
C133       C3067   1.548       .  S
C134        H141   1.079       .  S
C134        C135   1.376       .  D
C135        C136   1.551       .  S
C135       C2646   1.516       .  S
C136        C140   1.547       .  S
C136        C138   1.540       .  S
C136        H142   1.108       .  S
C137        H143   1.086       .  S
C137        C138   1.371       .  D
C138       C2550   1.490       .  S
C139        H144   1.086       .  S
C139        C140   1.366       .  D
C140       C2563   1.497       .  S
O145        C148   1.267       .  A
O145       Cd150   2.458       .  S
C146        O155   1.267       .  A
C146        O151   1.266       .  A
C146       C2491   1.472       .  S
O147        C153   1.266       .  A
O147       Cd150   2.486       .  S
C148        O156   1.265       .  A
C148       C2515   1.470       .  S
C149        O154   1.270       .  A
C149        O152   1.262       .  A
C149       C3211   1.483       .  S
Cd150       O157   2.458       .  S
Cd150       O156   2.417       .  S
Cd150       O155   2.448       .  S
Cd150       O151   2.441       .  S
Cd150       O154   2.525       .  S
Cd150       O152   2.423       .  S
C153        O157   1.263       .  A
C153       C2467   1.479       .  S
O158        C161   1.266       .  A
O158       Cd163   2.428       .  S
C159        O168   1.266       .  A
C159        O164   1.267       .  A
C159       C2419   1.474       .  S
O160        C166   1.262       .  A
O160       Cd163   2.446       .  S
C161        O169   1.267       .  A
C161       C2454   1.470       .  S
C162        O167   1.264       .  A
C162        O165   1.264       .  A
C162       C2406   1.483       .  S
Cd163       O170   2.526       .  S
Cd163       O169   2.440       .  S
Cd163       O168   2.450       .  S
Cd163       O164   2.447       .  S
Cd163       O167   2.490       .  S
Cd163       O165   2.479       .  S
C166        O170   1.270       .  A
C166       C3006   1.485       .  S
O171        C174   1.267       .  A
O171       Cd176   2.410       .  S
C172        O181   1.265       .  A
C172        O177   1.266       .  A
C172       C2526   1.471       .  S
O173        C179   1.271       .  A
O173       Cd176   2.544       .  S
C174        O182   1.269       .  A
C174       C2371   1.473       .  S
C175        O180   1.262       .  A
C175        O178   1.268       .  A
C175       C3115   1.485       .  S
Cd176       O183   2.409       .  S
Cd176       O182   2.475       .  S
Cd176       O181   2.423       .  S
Cd176       O177   2.461       .  S
Cd176       O180   2.454       .  S
Cd176       O178   2.507       .  S
C179        O183   1.260       .  A
C179       C2347   1.484       .  S
O184        C187   1.269       .  A
O184       Cd189   2.469       .  S
C185        O194   1.267       .  A
C185        O190   1.269       .  A
C185       C2382   1.475       .  S
O186        C192   1.270       .  A
O186       Cd189   2.499       .  S
C187        O195   1.265       .  A
C187       C2443   1.471       .  S
C188        O193   1.270       .  A
C188        O191   1.261       .  A
C188       C3043   1.484       .  S
Cd189       O196   2.437       .  S
Cd189       O195   2.407       .  S
Cd189       O194   2.449       .  S
Cd189       O190   2.432       .  S
Cd189       O193   2.521       .  S
Cd189       O191   2.434       .  S
C192        O196   1.263       .  A
C192       C2334   1.480       .  S
O197        C200   1.266       .  A
O197       Cd202   2.439       .  S
C198        O207   1.265       .  A
C198        O203   1.262       .  A
C198       C2430   1.474       .  S
O199        C205   1.263       .  A
O199       Cd202   2.423       .  S
C200        O208   1.265       .  A
C200       C2299   1.471       .  S
C201        O206   1.266       .  A
C201        O204   1.266       .  A
C201       C2934   1.478       .  S
Cd202       O209   2.517       .  S
Cd202       O208   2.456       .  S
Cd202       O207   2.470       .  S
Cd202       O203   2.450       .  S
Cd202       O206   2.449       .  S
Cd202       O204   2.459       .  S
C205        O209   1.269       .  A
C205       C2275   1.480       .  S
O210        C213   1.264       .  A
O210       Cd215   2.467       .  S
C211        O220   1.266       .  A
C211        O216   1.265       .  A
C211       C2310   1.471       .  S
O212        C218   1.267       .  A
O212       Cd215   2.486       .  S
C213        O221   1.263       .  A
C213       C2502   1.471       .  S
C214        O219   1.270       .  A
C214        O217   1.263       .  A
C214       C2838   1.485       .  S
Cd215       O222   2.469       .  S
Cd215       O221   2.450       .  S
Cd215       O220   2.470       .  S
Cd215       O216   2.433       .  S
Cd215       O219   2.513       .  S
Cd215       O217   2.443       .  S
C218        O222   1.264       .  A
C218       C2251   1.485       .  S
C223        C224   1.549       .  S
C223        C229   1.531   1_565  S
C223        C227   1.547       .  S
C223       C2155   1.540       .  S
C224        H231   1.083       .  S
C224        C225   1.367       .  D
C225        C226   1.538       .  S
C225       C2238   1.488       .  S
C226        C230   1.544   1_565  S
C226        C228   1.554       .  S
C226        H232   1.108       .  S
C227        H233   1.085       .  S
C227        C228   1.377       .  D
C228       C2214   1.510       .  S
C229        H234   1.087       .  S
C229        C230   1.362       .  D
C230       C2179   1.492       .  S
C235        C236   1.550   1_655  S
C235        C241   1.535       .  S
C235        C239   1.536       .  S
C235       C2094   1.538       .  S
C236        H243   1.081       .  S
C236        C237   1.379       .  D
C237        C238   1.553   1_455  S
C237       C2118   1.511       .  S
C238        C242   1.549       .  S
C238        C240   1.537       .  S
C238        H244   1.109   1_655  S
C239        H245   1.087       .  S
C239        C240   1.362       .  D
C240       C2131   1.480       .  S
C241        H246   1.086       .  S
C241        C242   1.366       .  D
C242       C2190   1.494       .  S
C247        C248   1.533       .  S
C247        C253   1.553       .  S
C247        C251   1.542       .  S
C247       C2107   1.543       .  S
C248        H255   1.086       .  S
C248        C249   1.364       .  D
C249        C250   1.546       .  S
C249       C2046   1.494       .  S
C250        C254   1.547       .  S
C250        C252   1.542       .  S
C250        H256   1.110       .  S
C251        H257   1.086       .  S
C251        C252   1.368       .  D
C252       C2011   1.496       .  S
C253        H258   1.083       .  S
C253        C254   1.378       .  D
C254       C2070   1.498       .  S
C259        C260   1.550       .  S
C259        C265   1.532   1_565  S
C259        C263   1.541       .  S
C259       C1987   1.547   1_565  S
C260        H267   1.082       .  S
C260        C261   1.376       .  D
C261        C262   1.551       .  S
C261       C1939   1.512       .  S
C262        C266   1.549   1_565  S
C262        C264   1.548       .  S
C262        H268   1.108       .  S
C263        H269   1.085       .  S
C263        C264   1.371       .  D
C264       C1963   1.498       .  S
C265        H270   1.086       .  S
C265        C266   1.367       .  D
C266       C2022   1.499       .  S
C271        C272   1.539       .  S
C271        C277   1.530       .  S
C271        C275   1.551       .  S
C271       C1915   1.544       .  S
C272        H279   1.086       .  S
C272        C273   1.366       .  D
C273        C274   1.541       .  S
C273       C1891   1.485       .  S
C274        C278   1.549       .  S
C274        C276   1.556   1_655  S
C274        H280   1.109       .  S
C275        H281   1.083   1_655  S
C275        C276   1.382   1_655  D
C276       C1950   1.516       .  S
C277        H282   1.087       .  S
C277        C278   1.364       .  D
C278       C1878   1.497       .  S
C283        C284   1.556       .  S
C283        C289   1.532       .  S
C283        C287   1.542       .  S
C283       C2203   1.545       .  S
C284        H291   1.081       .  S
C284        C285   1.376       .  D
C285        C286   1.544       .  S
C285       C1843   1.501       .  S
C286        C290   1.541       .  S
C286        C288   1.549       .  S
C286        H292   1.106       .  S
C287        H293   1.085       .  S
C287        C288   1.373       .  D
C288       C1867   1.506       .  S
C289        H294   1.086       .  S
C289        C290   1.363       .  D
C290       C1819   1.493       .  S
C295        C296   1.539       .  S
C295        C301   1.535       .  S
C295        C299   1.544       .  S
C295       C2083   1.543       .  S
C296        H303   1.085       .  S
C296        C297   1.376       .  D
C297        C298   1.554       .  S
C297       C1782   1.511       .  S
C298        C302   1.547       .  S
C298        C300   1.542       .  S
C298        H304   1.107       .  S
C299        H305   1.079       .  S
C299        C300   1.367       .  D
C300       C2286   1.493       .  S
C301        H306   1.086       .  S
C301        C302   1.366       .  D
C302       C1806   1.497       .  S
C307        C308   1.534       .  S
C307        C313   1.555       .  S
C307        C311   1.541       .  S
C307       C1771   1.545       .  S
C308        H315   1.086       .  S
C308        C309   1.365       .  D
C309        C310   1.539       .  S
C309       C2262   1.489       .  S
C310        C314   1.546       .  S
C310        C312   1.541       .  S
C310        H316   1.108       .  S
C311        H317   1.086       .  S
C311        C312   1.367       .  D
C312       C1747   1.489       .  S
C313        H318   1.082       .  S
C313        C314   1.380       .  D
C314       C1926   1.509       .  S
C319        C320   1.541       .  S
C319        C325   1.538       .  S
C319        C323   1.548       .  S
C319       C1854   1.541       .  S
C320        H327   1.085       .  S
C320        C321   1.376       .  D
C321        C322   1.548       .  S
C321       C1723   1.504       .  S
C322        C326   1.538       .  S
C322        C324   1.535       .  S
C322        H328   1.109       .  S
C323        H329   1.082       .  S
C323        C324   1.367       .  D
C324       C2478   1.481       .  S
C325        H330   1.086       .  S
C325        C326   1.363       .  D
C326       C1758   1.488       .  S
C331        C332   1.539       .  S
C331        C337   1.532       .  S
C331        C335   1.548       .  S
C331       C2166   1.539       .  S
C332        H339   1.086       .  S
C332        C333   1.368       .  D
C333        C334   1.544       .  S
C333       C2395   1.492       .  S
C334        C338   1.543       .  S
C334        C336   1.554       .  S
C334        H340   1.108       .  S
C335        H341   1.081       .  S
C335        C336   1.377       .  D
C336       C1699   1.511       .  S
C337        H342   1.087       .  S
C337        C338   1.364       .  D
C338       C1795   1.489       .  S
C343        C344   1.554       .  S
C343        C349   1.535       .  S
C343        C347   1.543       .  S
C343       C1710   1.543       .  S
C344        H351   1.082       .  S
C344        C345   1.377       .  D
C345        C346   1.546       .  S
C345       C1998   1.505       .  S
C346        C350   1.542       .  S
C346        C348   1.546       .  S
C346        H352   1.108       .  S
C347        H353   1.086       .  S
C347        C348   1.370       .  D
C348       C1675   1.500       .  S
C349        H354   1.086       .  S
C349        C350   1.363       .  D
C350       C2323   1.491       .  S
C355        C356   1.530       .  S
C355        C361   1.549       .  S
C355        C359   1.534       .  S
C355       C2059   1.539       .  S
C356        H363   1.086       .  S
C356        C357   1.365       .  D
C357        C358   1.553       .  S
C357       C1686   1.502       .  S
C358        C362   1.552       .  S
C358        C360   1.549       .  S
C358        H364   1.107       .  S
C359        H365   1.085       .  S
C359        C360   1.368       .  D
C360       C2358   1.502       .  S
C361        H366   1.083       .  S
C361        C362   1.378       .  D
C362       C1734   1.502       .  S
O367        C370   1.267       .  A
O367       Cd372   2.460       .  S
C368        O377   1.267       .  A
C368        O373   1.267       .  A
C368       C1627   1.476       .  S
O369        C375   1.263       .  A
O369       Cd372   2.464       .  S
C370        O378   1.265       .  A
C370       C1651   1.472       .  S
C371        O376   1.263       .  A
C371        O374   1.265   1_545  A
C371       C2227   1.486       .  S
Cd372       O379   2.520   1_565  S
Cd372       O378   2.427       .  S
Cd372       O377   2.475   1_565  S
Cd372       O373   2.442   1_565  S
Cd372       O376   2.486   1_565  S
Cd372       O374   2.503       .  S
C375        O379   1.269   1_565  A
C375       C1603   1.488       .  S
O380        C383   1.265       .  A
O380       Cd385   2.447   1_565  S
C381        O390   1.266       .  A
C381        O386   1.264       .  A
C381       C1555   1.475       .  S
O382        C388   1.264   1_565  A
O382       Cd385   2.469   1_565  S
C383        O391   1.265       .  A
C383       C1590   1.475       .  S
C384        O389   1.265       .  A
C384        O387   1.265   1_545  A
C384       C1531   1.483       .  S
Cd385       O392   2.511       .  S
Cd385       O391   2.469   1_545  S
Cd385       O390   2.466       .  S
Cd385       O386   2.450       .  S
Cd385       O389   2.475       .  S
Cd385       O387   2.487   1_545  S
C388        O392   1.267       .  A
C388       C1974   1.487       .  S
O393        C396   1.266       .  A
O393       Cd398   2.444       .  S
C394        O403   1.267       .  A
C394        O399   1.263       .  A
C394       C1566   1.470       .  S
O395        C401   1.267       .  A
O395       Cd398   2.480       .  S
C396        O404   1.265       .  A
C396       C1518   1.472       .  S
C397        O402   1.269       .  A
C397        O400   1.262       .  A
C397       C2035   1.485       .  S
Cd398       O405   2.463       .  S
Cd398       O404   2.459       .  S
Cd398       O403   2.487       .  S
Cd398       O399   2.419       .  S
Cd398       O402   2.525       .  S
Cd398       O400   2.432       .  S
C401        O405   1.264       .  A
C401       C1483   1.483       .  S
O406        C409   1.266       .  A
O406       Cd411   2.498       .  S
C407        O416   1.267       .  A
C407        O412   1.268       .  A
C407       C1507   1.469       .  S
O408        C414   1.263       .  A
O408       Cd411   2.497       .  S
C409        O417   1.262       .  A
C409       C1638   1.475       .  S
C410        O415   1.266   1_455  A
C410        O413   1.262       .  A
C410       C2142   1.485   1_455  S
Cd411       O418   2.515   1_455  S
Cd411       O417   2.428       .  S
Cd411       O416   2.459       .  S
Cd411       O412   2.428       .  S
Cd411       O415   2.499   1_455  S
Cd411       O413   2.469       .  S
C414        O418   1.265   1_455  A
C414       C1459   1.491       .  S
O419        C422   1.266       .  A
O419       Cd424   2.403       .  S
C420        O429   1.266       .  A
C420        O425   1.264       .  A
C420       C1662   1.468       .  S
O421        C427   1.262       .  A
O421       Cd424   2.467       .  S
C422        O430   1.269       .  A
C422       C1435   1.469       .  S
C423        O428   1.263       .  A
C423        O426   1.268       .  A
C423       C1830   1.487       .  S
Cd424       O431   2.501       .  S
Cd424       O430   2.470       .  S
Cd424       O429   2.441       .  S
Cd424       O425   2.448       .  S
Cd424       O428   2.450       .  S
Cd424       O426   2.520       .  S
C427        O431   1.266       .  A
C427       C1411   1.486       .  S
O432        C435   1.266       .  A
O432       Cd437   2.415       .  S
C433        O442   1.264       .  A
C433        O438   1.264       .  A
C433       C1579   1.470       .  S
O434        C440   1.270       .  A
O434       Cd437   2.506       .  S
C435        O443   1.268       .  A
C435       C1446   1.472       .  S
C436        O441   1.265       .  A
C436        O439   1.264       .  A
C436       C1387   1.483       .  S
Cd437       O444   2.446       .  S
Cd437       O443   2.468       .  S
Cd437       O442   2.452       .  S
Cd437       O438   2.460       .  S
Cd437       O441   2.473       .  S
Cd437       O439   2.485       .  S
C440        O444   1.264       .  A
C440       C1902   1.484       .  S
O445        C448   1.265       .  A
O445       Cd450   2.423       .  S
C446        O455   1.263       .  A
C446        O451   1.264       .  A
C446       C1350   1.470       .  S
O447        C453   1.263       .  A
O447       Cd450   2.482       .  S
C448        O456   1.267       .  A
C448       C1363   1.468       .  S
C449        O454   1.264       .  A
C449        O452   1.268       .  A
C449       C2598   1.489       .  S
Cd450       O457   2.493       .  S
Cd450       O456   2.471       .  S
Cd450       O455   2.452       .  S
Cd450       O451   2.450       .  S
Cd450       O454   2.481       .  S
Cd450       O452   2.493       .  S
C453        O457   1.266       .  A
C453       C1326   1.486       .  S
O458        C461   1.264       .  A
O458       Cd463   2.447       .  S
C459        O468   1.268       .  A
C459        O464   1.264       .  A
C459       C1339   1.474       .  S
O460        C466   1.267       .  A
O460       Cd463   2.509       .  S
C461        O469   1.267       .  A
C461       C1302   1.473       .  S
C462        O467   1.263       .  A
C462        O465   1.265       .  A
C462       C1278   1.486       .  S
Cd463       O470   2.472       .  S
Cd463       O469   2.450       .  S
Cd463       O468   2.477       .  S
Cd463       O464   2.427       .  S
Cd463       O467   2.478       .  S
Cd463       O465   2.508       .  S
C466        O470   1.263       .  A
C466       C2539   1.486       .  S
O471        C474   1.265       .  A
O471       Cd476   2.440       .  S
C472        O481   1.264       .  A
C472        O477   1.264       .  A
C472       C1291   1.473       .  S
O473        C479   1.265       .  A
O473       Cd476   2.479       .  S
C474        O482   1.265       .  A
C474       C1254   1.473       .  S
C475        O480   1.269       .  A
C475        O478   1.265       .  A
C475       C1230   1.484       .  S
Cd476       O483   2.468       .  S
Cd476       O482   2.467       .  S
Cd476       O481   2.456       .  S
Cd476       O477   2.464       .  S
Cd476       O480   2.503       .  S
Cd476       O478   2.444       .  S
C479        O483   1.263       .  A
C479       C2670   1.482       .  S
O484        C487   1.269       .  A
O484       Cd489   2.454       .  S
C485        O494   1.261       .  A
C485        O490   1.269       .  A
C485       C1195   1.475       .  S
O486        C492   1.266       .  A
O486       Cd489   2.526       .  S
C487        O495   1.265       .  A
C487       C1243   1.471       .  S
C488        O493   1.270       .  A
C488        O491   1.263       .  A
C488       C2742   1.482       .  S
Cd489       O496   2.470       .  S
Cd489       O495   2.455       .  S
Cd489       O494   2.419       .  S
Cd489       O490   2.502       .  S
Cd489       O493   2.501       .  S
Cd489       O491   2.444       .  S
C492        O496   1.261       .  A
C492       C1171   1.486       .  S
O497        C500   1.263       .  A
O497       Cd502   2.440       .  S
C498        O507   1.269       .  A
C498        O503   1.266       .  A
C498       C1158   1.475       .  S
O499        C505   1.270       .  A
O499       Cd502   2.532       .  S
C500        O508   1.266       .  A
C500       C1206   1.473       .  S
C501        O506   1.266       .  A
C501        O504   1.264       .  A
C501       C2622   1.487       .  S
Cd502       O509   2.430       .  S
Cd502       O508   2.463       .  S
Cd502       O507   2.452       .  S
Cd502       O503   2.444       .  S
Cd502       O506   2.501       .  S
Cd502       O504   2.480       .  S
C505        O509   1.262       .  A
C505       C1123   1.484       .  S
O510        C513   1.264       .  A
O510       Cd515   2.427       .  S
C511        O520   1.267       .  A
C511        O516   1.266       .  A
C511       C1147   1.471       .  S
O512        C518   1.263       .  A
O512       Cd515   2.459       .  S
C513        O521   1.266       .  A
C513       C1374   1.470       .  S
C514        O519   1.262       .  A
C514        O517   1.266       .  A
C514       C1099   1.488       .  S
Cd515       O522   2.497       .  S
Cd515       O521   2.458       .  S
Cd515       O520   2.472       .  S
Cd515       O516   2.425       .  S
Cd515       O519   2.472       .  S
Cd515       O517   2.516       .  S
C518        O522   1.266       .  A
C518       C2803   1.485       .  S
C523        C524   1.544       .  S
C523        C529   1.536       .  S
C523        C527   1.552       .  S
C523       C1086   1.547       .  S
C524        H531   1.086       .  S
C524        C525   1.368       .  D
C525        C526   1.537       .  S
C525       C1614   1.488       .  S
C526        C530   1.545       .  S
C526        C528   1.547   1_565  S
C526        H532   1.108       .  S
C527        H533   1.082   1_565  S
C527        C528   1.380   1_565  D
C528       C1027   1.508       .  S
C529        H534   1.086       .  S
C529        C530   1.367       .  D
C530       C1062   1.496       .  S
C535        C536   1.549   1_565  S
C535        C541   1.530       .  S
C535        C539   1.538       .  S
C535        C955   1.542       .  S
C536        H543   1.080       .  S
C536        C537   1.379       .  D
C537        C538   1.554   1_545  S
C537        C990   1.512       .  S
C538        C542   1.550       .  S
C538        C540   1.544       .  S
C538        H544   1.108       .  S
C539        H545   1.086       .  S
C539        C540   1.368       .  D
C540       C1542   1.490       .  S
C541        H546   1.086       .  S
C541        C542   1.364       .  D
C542       C1003   1.498       .  S
C547        C548   1.535       .  S
C547        C553   1.554       .  S
C547        C551   1.536       .  S
C547        C979   1.541       .  S
C548        H555   1.086       .  S
C548        C549   1.365       .  D
C549        C550   1.542       .  S
C549       C1494   1.493       .  S
C550        C554   1.545       .  S
C550        C552   1.539       .  S
C550        H556   1.108       .  S
C551        H557   1.086       .  S
C551        C552   1.363       .  D
C552        C907   1.487       .  S
C553        H558   1.083       .  S
C553        C554   1.382       .  D
C554        C931   1.500       .  S
C559        C560   1.542       .  S
C559        C565   1.534   1_655  S
C559        C563   1.543       .  S
C559        C883   1.549   1_655  S
C560        H567   1.085       .  S
C560        C561   1.377       .  D
C561        C562   1.552       .  S
C561       C1038   1.511       .  S
C562        C566   1.548   1_655  S
C562        C564   1.553       .  S
C562        H568   1.104       .  S
C563        H569   1.081       .  S
C563        C564   1.374       .  D
C564       C1470   1.513       .  S
C565        H570   1.084       .  S
C565        C566   1.365       .  D
C566        C918   1.496       .  S
C571        C572   1.536       .  S
C571        C577   1.537   1_655  S
C571        C575   1.548       .  S
C571        C859   1.542       .  S
C572        H579   1.086       .  S
C572        C573   1.364       .  D
C573        C574   1.542       .  S
C573       C1398   1.489       .  S
C574        C578   1.549   1_655  S
C574        C576   1.556       .  S
C574        H580   1.108       .  S
C575        H581   1.081       .  S
C575        C576   1.378       .  D
C576        C835   1.515       .  S
C577        H582   1.086       .  S
C577        C578   1.369       .  D
C578       C1014   1.499       .  S
C583        C584   1.557       .  S
C583        C589   1.541       .  S
C583        C587   1.543       .  S
C583        C846   1.548       .  S
C584        H591   1.082       .  S
C584        C585   1.380       .  D
C585        C586   1.542       .  S
C585        C811   1.503       .  S
C586        C590   1.536       .  S
C586        C588   1.538       .  S
C586        H592   1.108       .  S
C587        H593   1.086       .  S
C587        C588   1.367       .  D
C588       C1051   1.492       .  S
C589        H594   1.086       .  S
C589        C590   1.365       .  D
C590       C1422   1.489       .  S
C595        C596   1.549       .  S
C595        C601   1.536       .  S
C595        C599   1.556       .  S
C595        C763   1.549       .  S
C596        H603   1.084       .  S
C596        C597   1.371       .  D
C597        C598   1.543       .  S
C597        C787   1.499       .  S
C598        C602   1.538       .  S
C598        C600   1.542       .  S
C598        H604   1.108       .  S
C599        H605   1.085       .  S
C599        C600   1.377       .  D
C600       C1075   1.504       .  S
C601        H606   1.086       .  S
C601        C602   1.365       .  D
C602       C1315   1.490       .  S
C607        C608   1.551       .  S
C607        C613   1.533       .  S
C607        C611   1.547       .  S
C607        C966   1.546       .  S
C608        H615   1.085       .  S
C608        C609   1.380       .  D
C609        C610   1.553       .  S
C609        C774   1.514       .  S
C610        C614   1.542       .  S
C610        C612   1.541       .  S
C610        H616   1.107       .  S
C611        H617   1.082       .  S
C611        C612   1.368       .  D
C612       C1267   1.493       .  S
C613        H618   1.087       .  S
C613        C614   1.363       .  D
C614        C739   1.492       .  S
C619        C620   1.550       .  S
C619        C625   1.530       .  S
C619        C623   1.536       .  S
C619        C822   1.538       .  S
C620        H627   1.083       .  S
C620        C621   1.382       .  D
C621        C622   1.555       .  S
C621        C715   1.509       .  S
C622        C626   1.547       .  S
C622        C624   1.547       .  S
C622        H628   1.108       .  S
C623        H629   1.086       .  S
C623        C624   1.365       .  D
C624       C1110   1.495       .  S
C625        H630   1.087       .  S
C625        C626   1.362       .  D
C626        C798   1.495       .  S
C631        C632   1.554       .  S
C631        C637   1.536       .  S
C631        C635   1.539       .  S
C631        C702   1.542       .  S
C632        H639   1.083       .  S
C632        C633   1.380       .  D
C633        C634   1.549       .  S
C633        C894   1.501       .  S
C634        C638   1.543       .  S
C634        C636   1.541       .  S
C634        H640   1.110       .  S
C635        H641   1.087       .  S
C635        C636   1.365       .  D
C636        C667   1.492       .  S
C637        H642   1.086       .  S
C637        C638   1.364       .  D
C638       C1182   1.493       .  S
C643        C644   1.533       .  S
C643        C649   1.533       .  S
C643        C647   1.549       .  S
C643        C870   1.538       .  S
C644        H651   1.086       .  S
C644        C645   1.363       .  D
C645        C646   1.545       .  S
C645       C1219   1.493       .  S
C646        C650   1.546       .  S
C646        C648   1.562       .  S
C646        H652   1.106       .  S
C647        H653   1.082       .  S
C647        C648   1.385       .  D
C648        C691   1.518       .  S
C649        H654   1.087       .  S
C649        C650   1.361       .  D
C650        C750   1.495       .  S
C655        C656   1.539       .  S
C655        C661   1.532       .  S
C655        C659   1.548       .  S
C655        C942   1.538       .  S
C656        H663   1.086       .  S
C656        C657   1.367       .  D
C657        C658   1.543       .  S
C657       C1134   1.492       .  S
C658        C662   1.546       .  S
C658        C660   1.553       .  S
C658        H664   1.107       .  S
C659        H665   1.083       .  S
C659        C660   1.380       .  D
C660        C726   1.508       .  S
C661        H666   1.086       .  S
C661        C662   1.362       .  D
C662        C678   1.496       .  S
C667        C668   1.405       .  A
C667        C672   1.405       .  A
C668        C669   1.399       .  A
C668        H681   1.083       .  S
C669        C670   1.404       .  A
C669        H682   1.084       .  S
C670        C673   1.495       .  S
C670        C671   1.410       .  A
C671        C672   1.406       .  A
C671        H683   1.082       .  S
C672        H684   1.081       .  S
C673        H685   1.084       .  S
C673        C674   1.352       .  D
C674        H686   1.085       .  S
C674        C675   1.500       .  S
C675        C676   1.408       .  A
C675        C680   1.409       .  A
C676        C677   1.405       .  A
C676        H687   1.083       .  S
C677        C678   1.405       .  A
C677        H688   1.083       .  S
C678        C679   1.407       .  A
C679        C680   1.399       .  A
C679        H689   1.083       .  S
C680        H690   1.080       .  S
C691        C692   1.413       .  A
C691        C696   1.409       .  A
C692        C693   1.410       .  A
C692        H705   1.081       .  S
C693        C694   1.409       .  A
C693        H706   1.083       .  S
C694        C697   1.514       .  S
C694        C695   1.411       .  A
C695        C696   1.403       .  A
C695        H707   1.078       .  S
C696        H708   1.076       .  S
C697        H709   1.085       .  S
C697        C698   1.357       .  D
C698        H710   1.081       .  S
C698        C699   1.505       .  S
C699        C700   1.403       .  A
C699        C704   1.413       .  A
C700        C701   1.396       .  A
C700        H711   1.084       .  S
C701        C702   1.409       .  A
C701        H712   1.083       .  S
C702        C703   1.413       .  A
C703        C704   1.416       .  A
C703        H713   1.079       .  S
C704        H714   1.081       .  S
C715        C716   1.406       .  A
C715        C720   1.411       .  A
C716        C717   1.404       .  A
C716        H729   1.081       .  S
C717        C718   1.408       .  A
C717        H730   1.083       .  S
C718        C721   1.511       .  S
C718        C719   1.412       .  A
C719        C720   1.411       .  A
C719        H731   1.080       .  S
C720        H732   1.082       .  S
C721        H733   1.082       .  S
C721        C722   1.358       .  D
C722        H734   1.083       .  S
C722        C723   1.512       .  S
C723        C724   1.409       .  A
C723        C728   1.413       .  A
C724        C725   1.406       .  A
C724        H735   1.083       .  S
C725        C726   1.408       .  A
C725        H736   1.082       .  S
C726        C727   1.409       .  A
C727        C728   1.409       .  A
C727        H737   1.082       .  S
C728        H738   1.079       .  S
C739        C740   1.404       .  A
C739        C744   1.406       .  A
C740        C741   1.398       .  A
C740        H753   1.083       .  S
C741        C742   1.406       .  A
C741        H754   1.083       .  S
C742        C745   1.499       .  S
C742        C743   1.412       .  A
C743        C744   1.409       .  A
C743        H755   1.081       .  S
C744        H756   1.083       .  S
C745        H757   1.082       .  S
C745        C746   1.355       .  D
C746        H758   1.084       .  S
C746        C747   1.504       .  S
C747        C748   1.409       .  A
C747        C752   1.410       .  A
C748        C749   1.407       .  A
C748        H759   1.083       .  S
C749        C750   1.404       .  A
C749        H760   1.083       .  S
C750        C751   1.406       .  A
C751        C752   1.400       .  A
C751        H761   1.083       .  S
C752        H762   1.080       .  S
C763        C764   1.410       .  A
C763        C768   1.414       .  A
C764        C765   1.409       .  A
C764        H777   1.082       .  S
C765        C766   1.410       .  A
C765        H778   1.083       .  S
C766        C769   1.516       .  S
C766        C767   1.411       .  A
C767        C768   1.409       .  A
C767        H779   1.080       .  S
C768        H780   1.081       .  S
C769        H781   1.083       .  S
C769        C770   1.361       .  D
C770        H782   1.082       .  S
C770        C771   1.514       .  S
C771        C772   1.408       .  A
C771        C776   1.412       .  A
C772        C773   1.405       .  A
C772        H783   1.083       .  S
C773        C774   1.408       .  A
C773        H784   1.081       .  S
C774        C775   1.412       .  A
C775        C776   1.412       .  A
C775        H785   1.082       .  S
C776        H786   1.080       .  S
C787        C788   1.404       .  A
C787        C792   1.409       .  A
C788        C789   1.399       .  A
C788        H801   1.082       .  S
C789        C790   1.406       .  A
C789        H802   1.083       .  S
C790        C793   1.501       .  S
C790        C791   1.411       .  A
C791        C792   1.408       .  A
C791        H803   1.080       .  S
C792        H804   1.082       .  S
C793        H805   1.084       .  S
C793        C794   1.355       .  D
C794        H806   1.083       .  S
C794        C795   1.502       .  S
C795        C796   1.410       .  A
C795        C800   1.409       .  A
C796        C797   1.408       .  A
C796        H807   1.083       .  S
C797        C798   1.404       .  A
C797        H808   1.082       .  S
C798        C799   1.407       .  A
C799        C800   1.398       .  A
C799        H809   1.083       .  S
C800        H810   1.080       .  S
C811        C812   1.409       .  A
C811        C816   1.407       .  A
C812        C813   1.401       .  A
C812        H825   1.082       .  S
C813        C814   1.404       .  A
C813        H826   1.083       .  S
C814        C817   1.503       .  S
C814        C815   1.413       .  A
C815        C816   1.408       .  A
C815        H827   1.081       .  S
C816        H828   1.082       .  S
C817        H829   1.086       .  S
C817        C818   1.350       .  D
C818        H830   1.084       .  S
C818        C819   1.497       .  S
C819        C820   1.399       .  A
C819        C824   1.412       .  A
C820        C821   1.394       .  A
C820        H831   1.084       .  S
C821        C822   1.411       .  A
C821        H832   1.083       .  S
C822        C823   1.411       .  A
C823        C824   1.414       .  A
C823        H833   1.080       .  S
C824        H834   1.082       .  S
C835        C836   1.411       .  A
C835        C840   1.410       .  A
C836        C837   1.406       .  A
C836        H849   1.081       .  S
C837        C838   1.407       .  A
C837        H850   1.083       .  S
C838        C841   1.513       .  S
C838        C839   1.413       .  A
C839        C840   1.411       .  A
C839        H851   1.080       .  S
C840        H852   1.081       .  S
C841        H853   1.085       .  S
C841        C842   1.356       .  D
C842        H854   1.084       .  S
C842        C843   1.510       .  S
C843        C844   1.404       .  A
C843        C848   1.413       .  A
C844        C845   1.401       .  A
C844        H855   1.083       .  S
C845        C846   1.410       .  A
C845        H856   1.083       .  S
C846        C847   1.415       .  A
C847        C848   1.416       .  A
C847        H857   1.079       .  S
C848        H858   1.081       .  S
C859        C860   1.413       .  A
C859        C864   1.411   1_655  A
C860        C861   1.409       .  A
C860        H873   1.078       .  S
C861        C862   1.406   1_655  A
C861        H874   1.083       .  S
C862        C865   1.500       .  S
C862        C863   1.405       .  A
C863        C864   1.399       .  A
C863        H875   1.082       .  S
C864        H876   1.083       .  S
C865        H877   1.086   1_455  S
C865        C866   1.349       .  D
C866        H878   1.086       .  S
C866        C867   1.491       .  S
C867        C868   1.398       .  A
C867        C872   1.410       .  A
C868        C869   1.392       .  A
C868        H879   1.084       .  S
C869        C870   1.410       .  A
C869        H880   1.084       .  S
C870        C871   1.413       .  A
C871        C872   1.415       .  A
C871        H881   1.080       .  S
C872        H882   1.083       .  S
C883        C884   1.411   1_455  A
C883        C888   1.415       .  A
C884        C885   1.405   1_655  A
C884        H897   1.081       .  S
C885        C886   1.405       .  A
C885        H898   1.083   1_455  S
C886        C889   1.503       .  S
C886        C887   1.408       .  A
C887        C888   1.406       .  A
C887        H899   1.082       .  S
C888        H900   1.081       .  S
C889        H901   1.084       .  S
C889        C890   1.354       .  D
C890        H902   1.086       .  S
C890        C891   1.504       .  S
C891        C892   1.406       .  A
C891        C896   1.413       .  A
C892        C893   1.400       .  A
C892        H903   1.084       .  S
C893        C894   1.405       .  A
C893        H904   1.083       .  S
C894        C895   1.409       .  A
C895        C896   1.411       .  A
C895        H905   1.083       .  S
C896        H906   1.081       .  S
C907        C908   1.404       .  A
C907        C912   1.405       .  A
C908        C909   1.397       .  A
C908        H921   1.083       .  S
C909        C910   1.403       .  A
C909        H922   1.083       .  S
C910        C913   1.490       .  S
C910        C911   1.410       .  A
C911        C912   1.405       .  A
C911        H923   1.082       .  S
C912        H924   1.083       .  S
C913        H925   1.084       .  S
C913        C914   1.350       .  D
C914        H926   1.086       .  S
C914        C915   1.496       .  S
C915        C916   1.407       .  A
C915        C920   1.407       .  A
C916        C917   1.405       .  A
C916        H927   1.083       .  S
C917        C918   1.405       .  A
C917        H928   1.080       .  S
C918        C919   1.408       .  A
C919        C920   1.397       .  A
C919        H929   1.083       .  S
C920        H930   1.080       .  S
C931        C932   1.407       .  A
C931        C936   1.408       .  A
C932        C933   1.406       .  A
C932        H945   1.082       .  S
C933        C934   1.407       .  A
C933        H946   1.083       .  S
C934        C937   1.500       .  S
C934        C935   1.408       .  A
C935        C936   1.402       .  A
C935        H947   1.082       .  S
C936        H948   1.082       .  S
C937        H949   1.086       .  S
C937        C938   1.350       .  D
C938        H950   1.086       .  S
C938        C939   1.496       .  S
C939        C940   1.400       .  A
C939        C944   1.411       .  A
C940        C941   1.394       .  A
C940        H951   1.084       .  S
C941        C942   1.410       .  A
C941        H952   1.084       .  S
C942        C943   1.412       .  A
C943        C944   1.412       .  A
C943        H953   1.079       .  S
C944        H954   1.082       .  S
C955        C956   1.411       .  A
C955        C960   1.412       .  A
C956        C957   1.408       .  A
C956        H969   1.078   1_565  S
C957        C958   1.408       .  A
C957        H970   1.083       .  S
C958        C961   1.503       .  S
C958        C959   1.407       .  A
C959        C960   1.402       .  A
C959        H971   1.081       .  S
C960        H972   1.083       .  S
C961        H973   1.085       .  S
C961        C962   1.356       .  D
C962        H974   1.085       .  S
C962        C963   1.503       .  S
C963        C964   1.407       .  A
C963        C968   1.407       .  A
C964        C965   1.406       .  A
C964        H975   1.083       .  S
C965        C966   1.410       .  A
C965        H976   1.083       .  S
C966        C967   1.416       .  A
C967        C968   1.406       .  A
C967        H977   1.077       .  S
C968        H978   1.082       .  S
C979        C980   1.410       .  A
C979        C984   1.412       .  A
C980        C981   1.396       .  A
C980        H993   1.084       .  S
C981        C982   1.402       .  A
C981        H994   1.083       .  S
C982        C985   1.506       .  S
C982        C983   1.414       .  A
C983        C984   1.415       .  A
C983        H995   1.081       .  S
C984        H996   1.080       .  S
C985        H997   1.084       .  S
C985        C986   1.353       .  D
C986        H998   1.085       .  S
C986        C987   1.508       .  S
C987        C988   1.405       .  A
C987        C992   1.413       .  A
C988        C989   1.403       .  A
C988        H999   1.083       .  S
C989        C990   1.411       .  A
C989       H1000   1.081       .  S
C990        C991   1.410       .  A
C991        C992   1.410       .  A
C991       H1001   1.081       .  S
C992       H1002   1.081       .  S
C1003      C1004   1.405       .  A
C1003      C1008   1.407       .  A
C1004      C1005   1.397       .  A
C1004      H1017   1.083       .  S
C1005      C1006   1.405       .  A
C1005      H1018   1.083       .  S
C1006      C1009   1.503       .  S
C1006      C1007   1.414       .  A
C1007      C1008   1.412       .  A
C1007      H1019   1.080       .  S
C1008      H1020   1.083       .  S
C1009      H1021   1.082       .  S
C1009      C1010   1.354       .  D
C1010      H1022   1.084       .  S
C1010      C1011   1.507       .  S
C1011      C1012   1.408       .  A
C1011      C1016   1.412       .  A
C1012      C1013   1.406       .  A
C1012      H1023   1.083       .  S
C1013      C1014   1.406       .  A
C1013      H1024   1.082       .  S
C1014      C1015   1.406       .  A
C1015      C1016   1.403       .  A
C1015      H1025   1.083       .  S
C1016      H1026   1.079       .  S
C1027      C1028   1.407       .  A
C1027      C1032   1.410       .  A
C1028      C1029   1.405       .  A
C1028      H1041   1.082       .  S
C1029      C1030   1.408       .  A
C1029      H1042   1.083       .  S
C1030      C1033   1.510       .  S
C1030      C1031   1.412       .  A
C1031      C1032   1.410       .  A
C1031      H1043   1.080       .  S
C1032      H1044   1.082       .  S
C1033      H1045   1.082       .  S
C1033      C1034   1.359       .  D
C1034      H1046   1.084       .  S
C1034      C1035   1.513       .  S
C1035      C1036   1.409       .  A
C1035      C1040   1.413       .  A
C1036      C1037   1.406       .  A
C1036      H1047   1.083       .  S
C1037      C1038   1.408       .  A
C1037      H1048   1.082       .  S
C1038      C1039   1.410       .  A
C1039      C1040   1.408       .  A
C1039      H1049   1.082       .  S
C1040      H1050   1.079       .  S
C1051      C1052   1.404       .  A
C1051      C1056   1.407       .  A
C1052      C1053   1.399       .  A
C1052      H1065   1.083       .  S
C1053      C1054   1.406       .  A
C1053      H1066   1.083       .  S
C1054      C1057   1.496       .  S
C1054      C1055   1.410       .  A
C1055      C1056   1.406       .  A
C1055      H1067   1.081       .  S
C1056      H1068   1.083       .  S
C1057      H1069   1.086       .  S
C1057      C1058   1.352       .  D
C1058      H1070   1.085       .  S
C1058      C1059   1.495       .  S
C1059      C1060   1.405       .  A
C1059      C1064   1.408       .  A
C1060      C1061   1.403       .  A
C1060      H1071   1.083       .  S
C1061      C1062   1.407       .  A
C1061      H1072   1.082       .  S
C1062      C1063   1.408       .  A
C1063      C1064   1.401       .  A
C1063      H1073   1.083       .  S
C1064      H1074   1.082       .  S
C1075      C1076   1.406       .  A
C1075      C1080   1.409       .  A
C1076      C1077   1.403       .  A
C1076      H1089   1.083       .  S
C1077      C1078   1.406       .  A
C1077      H1090   1.083       .  S
C1078      C1081   1.508       .  S
C1078      C1079   1.413       .  A
C1079      C1080   1.412       .  A
C1079      H1091   1.081       .  S
C1080      H1092   1.082       .  S
C1081      H1093   1.086       .  S
C1081      C1082   1.354       .  D
C1082      H1094   1.086       .  S
C1082      C1083   1.506       .  S
C1083      C1084   1.403       .  A
C1083      C1088   1.412       .  A
C1084      C1085   1.401       .  A
C1084      H1095   1.084       .  S
C1085      C1086   1.411       .  A
C1085      H1096   1.083       .  S
C1086      C1087   1.413       .  A
C1087      C1088   1.414       .  A
C1087      H1097   1.079       .  S
C1088      H1098   1.082       .  S
C1099      C1100   1.404       .  A
C1099      C1104   1.407       .  A
C1100      C1101   1.403       .  A
C1100      H1113   1.083       .  S
C1101      C1102   1.408       .  A
C1101      H1114   1.083       .  S
C1102      C1105   1.498       .  S
C1102      C1103   1.409       .  A
C1103      C1104   1.401       .  A
C1103      H1115   1.080       .  S
C1104      H1116   1.083       .  S
C1105      H1117   1.084       .  S
C1105      C1106   1.354       .  D
C1106      H1118   1.083       .  S
C1106      C1107   1.496       .  S
C1107      C1108   1.408       .  A
C1107      C1112   1.407       .  A
C1108      C1109   1.404       .  A
C1108      H1119   1.083       .  S
C1109      C1110   1.405       .  A
C1109      H1120   1.082       .  S
C1110      C1111   1.409       .  A
C1111      C1112   1.398       .  A
C1111      H1121   1.082       .  S
C1112      H1122   1.081       .  S
C1123      C1124   1.406       .  A
C1123      C1128   1.406       .  A
C1124      C1125   1.405       .  A
C1124      H1137   1.083       .  S
C1125      C1126   1.406       .  A
C1125      H1138   1.083       .  S
C1126      C1129   1.490       .  S
C1126      C1127   1.405       .  A
C1127      C1128   1.395       .  A
C1127      H1139   1.082       .  S
C1128      H1140   1.083       .  S
C1129      H1141   1.086       .  S
C1129      C1130   1.349       .  D
C1130      H1142   1.086       .  S
C1130      C1131   1.488       .  S
C1131      C1132   1.404       .  A
C1131      C1136   1.406       .  A
C1132      C1133   1.398       .  A
C1132      H1143   1.083       .  S
C1133      C1134   1.404       .  A
C1133      H1144   1.082       .  S
C1134      C1135   1.409       .  A
C1135      C1136   1.401       .  A
C1135      H1145   1.082       .  S
C1136      H1146   1.082       .  S
C1147      C1148   1.403       .  A
C1147      C1152   1.404       .  A
C1148      C1149   1.393       .  A
C1148      H1161   1.083       .  S
C1149      C1150   1.401       .  A
C1149      H1162   1.084       .  S
C1150      C1153   1.477       .  S
C1150      C1151   1.406       .  A
C1151      C1152   1.399       .  A
C1151      H1163   1.083       .  S
C1152      H1164   1.083       .  S
C1153      H1165   1.086       .  S
C1153      C1154   1.346       .  D
C1154      H1166   1.087       .  S
C1154      C1155   1.481       .  S
C1155      C1156   1.403       .  A
C1155      C1160   1.406       .  A
C1156      C1157   1.395       .  A
C1156      H1167   1.084       .  S
C1157      C1158   1.402       .  A
C1157      H1168   1.083       .  S
C1158      C1159   1.406       .  A
C1159      C1160   1.399       .  A
C1159      H1169   1.083       .  S
C1160      H1170   1.082       .  S
C1171      C1172   1.405       .  A
C1171      C1176   1.406       .  A
C1172      C1173   1.403       .  A
C1172      H1185   1.083       .  S
C1173      C1174   1.407       .  A
C1173      H1186   1.083       .  S
C1174      C1177   1.498       .  S
C1174      C1175   1.409       .  A
C1175      C1176   1.401       .  A
C1175      H1187   1.081       .  S
C1176      H1188   1.083       .  S
C1177      H1189   1.085       .  S
C1177      C1178   1.354       .  D
C1178      H1190   1.083       .  S
C1178      C1179   1.495       .  S
C1179      C1180   1.407       .  A
C1179      C1184   1.407       .  A
C1180      C1181   1.403       .  A
C1180      H1191   1.083       .  S
C1181      C1182   1.403       .  A
C1181      H1192   1.081       .  S
C1182      C1183   1.408       .  A
C1183      C1184   1.401       .  A
C1183      H1193   1.083       .  S
C1184      H1194   1.082       .  S
C1195      C1196   1.403       .  A
C1195      C1200   1.405       .  A
C1196      C1197   1.400       .  A
C1196      H1209   1.083       .  S
C1197      C1198   1.405       .  A
C1197      H1210   1.083       .  S
C1198      C1201   1.484       .  S
C1198      C1199   1.406       .  A
C1199      C1200   1.394       .  A
C1199      H1211   1.082       .  S
C1200      H1212   1.084       .  S
C1201      H1213   1.085       .  S
C1201      C1202   1.348       .  D
C1202      H1214   1.085       .  S
C1202      C1203   1.483       .  S
C1203      C1204   1.404       .  A
C1203      C1208   1.407       .  A
C1204      C1205   1.395       .  A
C1204      H1215   1.083       .  S
C1205      C1206   1.402       .  A
C1205      H1216   1.083       .  S
C1206      C1207   1.405       .  A
C1207      C1208   1.397       .  A
C1207      H1217   1.083       .  S
C1208      H1218   1.081       .  S
C1219      C1220   1.403       .  A
C1219      C1224   1.408       .  A
C1220      C1221   1.400       .  A
C1220      H1233   1.079       .  S
C1221      C1222   1.406       .  A
C1221      H1234   1.083       .  S
C1222      C1225   1.492       .  S
C1222      C1223   1.407       .  A
C1223      C1224   1.400       .  A
C1223      H1235   1.081       .  S
C1224      H1236   1.083       .  S
C1225      H1237   1.086       .  S
C1225      C1226   1.351       .  D
C1226      H1238   1.084       .  S
C1226      C1227   1.490       .  S
C1227      C1228   1.405       .  A
C1227      C1232   1.406       .  A
C1228      C1229   1.403       .  A
C1228      H1239   1.083       .  S
C1229      C1230   1.406       .  A
C1229      H1240   1.083       .  S
C1230      C1231   1.406       .  A
C1231      C1232   1.398       .  A
C1231      H1241   1.083       .  S
C1232      H1242   1.082       .  S
C1243      C1244   1.405   1_455  A
C1243      C1248   1.401       .  A
C1244      C1245   1.400       .  A
C1244      H1257   1.083       .  S
C1245      C1246   1.405       .  A
C1245      H1258   1.083       .  S
C1246      C1249   1.477       .  S
C1246      C1247   1.402   1_655  A
C1247      C1248   1.395       .  A
C1247      H1259   1.084       .  S
C1248      H1260   1.083       .  S
C1249      H1261   1.087       .  S
C1249      C1250   1.344   1_655  D
C1250      H1262   1.087       .  S
C1250      C1251   1.477       .  S
C1251      C1252   1.401       .  A
C1251      C1256   1.405       .  A
C1252      C1253   1.394       .  A
C1252      H1263   1.084       .  S
C1253      C1254   1.403       .  A
C1253      H1264   1.083       .  S
C1254      C1255   1.405       .  A
C1255      C1256   1.399       .  A
C1255      H1265   1.083       .  S
C1256      H1266   1.083   1_455  S
C1267      C1268   1.403       .  A
C1267      C1272   1.408       .  A
C1268      C1269   1.397       .  A
C1268      H1281   1.082       .  S
C1269      C1270   1.405       .  A
C1269      H1282   1.084       .  S
C1270      C1273   1.496       .  S
C1270      C1271   1.410       .  A
C1271      C1272   1.404       .  A
C1271      H1283   1.080       .  S
C1272      H1284   1.083       .  S
C1273      H1285   1.085       .  S
C1273      C1274   1.352       .  D
C1274      H1286   1.084       .  S
C1274      C1275   1.495       .  S
C1275      C1276   1.406       .  A
C1275      C1280   1.409       .  A
C1276      C1277   1.403       .  A
C1276      H1287   1.083       .  S
C1277      C1278   1.406       .  A
C1277      H1288   1.083       .  S
C1278      C1279   1.405       .  A
C1279      C1280   1.399       .  A
C1279      H1289   1.083       .  S
C1280      H1290   1.081       .  S
C1291      C1292   1.406       .  A
C1291      C1296   1.403       .  A
C1292      C1293   1.398       .  A
C1292      H1305   1.083       .  S
C1293      C1294   1.401       .  A
C1293      H1306   1.084       .  S
C1294      C1297   1.478       .  S
C1294      C1295   1.405       .  A
C1295      C1296   1.395       .  A
C1295      H1307   1.083       .  S
C1296      H1308   1.083       .  S
C1297      H1309   1.086       .  S
C1297      C1298   1.346       .  D
C1298      H1310   1.087       .  S
C1298      C1299   1.476       .  S
C1299      C1300   1.402       .  A
C1299      C1304   1.404       .  A
C1300      C1301   1.393       .  A
C1300      H1311   1.084       .  S
C1301      C1302   1.402       .  A
C1301      H1312   1.083       .  S
C1302      C1303   1.407       .  A
C1303      C1304   1.399       .  A
C1303      H1313   1.083       .  S
C1304      H1314   1.082       .  S
C1315      C1316   1.403       .  A
C1315      C1320   1.405       .  A
C1316      C1317   1.401       .  A
C1316      H1329   1.082       .  S
C1317      C1318   1.407       .  A
C1317      H1330   1.084       .  S
C1318      C1321   1.498       .  S
C1318      C1319   1.411       .  A
C1319      C1320   1.402       .  A
C1319      H1331   1.080       .  S
C1320      H1332   1.083       .  S
C1321      H1333   1.087       .  S
C1321      C1322   1.352       .  D
C1322      H1334   1.084       .  S
C1322      C1323   1.492       .  S
C1323      C1324   1.404       .  A
C1323      C1328   1.408       .  A
C1324      C1325   1.400       .  A
C1324      H1335   1.084       .  S
C1325      C1326   1.405       .  A
C1325      H1336   1.083       .  S
C1326      C1327   1.408       .  A
C1327      C1328   1.403       .  A
C1327      H1337   1.083       .  S
C1328      H1338   1.082       .  S
C1339      C1340   1.402       .  A
C1339      C1344   1.405       .  A
C1340      C1341   1.397       .  A
C1340      H1353   1.083       .  S
C1341      C1342   1.405       .  A
C1341      H1354   1.083       .  S
C1342      C1345   1.483       .  S
C1342      C1343   1.406       .  A
C1343      C1344   1.395       .  A
C1343      H1355   1.081       .  S
C1344      H1356   1.083       .  S
C1345      H1357   1.087       .  S
C1345      C1346   1.348       .  D
C1346      H1358   1.084       .  S
C1346      C1347   1.477       .  S
C1347      C1348   1.402       .  A
C1347      C1352   1.405       .  A
C1348      C1349   1.396       .  A
C1348      H1359   1.083       .  S
C1349      C1350   1.403       .  A
C1349      H1360   1.083       .  S
C1350      C1351   1.404       .  A
C1351      C1352   1.395       .  A
C1351      H1361   1.083       .  S
C1352      H1362   1.083       .  S
C1363      C1364   1.403       .  A
C1363      C1368   1.402       .  A
C1364      C1365   1.399       .  A
C1364      H1377   1.083       .  S
C1365      C1366   1.406       .  A
C1365      H1378   1.083       .  S
C1366      C1369   1.476       .  S
C1366      C1367   1.401       .  A
C1367      C1368   1.393       .  A
C1367      H1379   1.084       .  S
C1368      H1380   1.083       .  S
C1369      H1381   1.086       .  S
C1369      C1370   1.345       .  D
C1370      H1382   1.087       .  S
C1370      C1371   1.478       .  S
C1371      C1372   1.402       .  A
C1371      C1376   1.407       .  A
C1372      C1373   1.393       .  A
C1372      H1383   1.084       .  S
C1373      C1374   1.404       .  A
C1373      H1384   1.083       .  S
C1374      C1375   1.403       .  A
C1375      C1376   1.396       .  A
C1375      H1385   1.083       .  S
C1376      H1386   1.082       .  S
C1387      C1388   1.407   1_655  A
C1387      C1392   1.406       .  A
C1388      C1389   1.404       .  A
C1388      H1401   1.083       .  S
C1389      C1390   1.405       .  A
C1389      H1402   1.083       .  S
C1390      C1393   1.489       .  S
C1390      C1391   1.405   1_455  A
C1391      C1392   1.398       .  A
C1391      H1403   1.083       .  S
C1392      H1404   1.083       .  S
C1393      H1405   1.085       .  S
C1393      C1394   1.350   1_455  D
C1394      H1406   1.087       .  S
C1394      C1395   1.490       .  S
C1395      C1396   1.406       .  A
C1395      C1400   1.406   1_655  A
C1396      C1397   1.400       .  A
C1396      H1407   1.083       .  S
C1397      C1398   1.402       .  A
C1397      H1408   1.083       .  S
C1398      C1399   1.408   1_655  A
C1399      C1400   1.402       .  A
C1399      H1409   1.083       .  S
C1400      H1410   1.082       .  S
C1411      C1412   1.405       .  A
C1411      C1416   1.407       .  A
C1412      C1413   1.402       .  A
C1412      H1425   1.083       .  S
C1413      C1414   1.406       .  A
C1413      H1426   1.083       .  S
C1414      C1417   1.497       .  S
C1414      C1415   1.409       .  A
C1415      C1416   1.402       .  A
C1415      H1427   1.080       .  S
C1416      H1428   1.083       .  S
C1417      H1429   1.085       .  S
C1417      C1418   1.352       .  D
C1418      H1430   1.083       .  S
C1418      C1419   1.493       .  S
C1419      C1420   1.406       .  A
C1419      C1424   1.408       .  A
C1420      C1421   1.402       .  A
C1420      H1431   1.083       .  S
C1421      C1422   1.404       .  A
C1421      H1432   1.083       .  S
C1422      C1423   1.406       .  A
C1423      C1424   1.401       .  A
C1423      H1433   1.083       .  S
C1424      H1434   1.082       .  S
C1435      C1436   1.404       .  A
C1435      C1440   1.401       .  A
C1436      C1437   1.401       .  A
C1436      H1449   1.083       .  S
C1437      C1438   1.404       .  A
C1437      H1450   1.083       .  S
C1438      C1441   1.480       .  S
C1438      C1439   1.407       .  A
C1439      C1440   1.389       .  A
C1439      H1451   1.082       .  S
C1440      H1452   1.083       .  S
C1441      H1453   1.085       .  S
C1441      C1442   1.344       .  D
C1442      H1454   1.087       .  S
C1442      C1443   1.477       .  S
C1443      C1444   1.401       .  A
C1443      C1448   1.407       .  A
C1444      C1445   1.392       .  A
C1444      H1455   1.084       .  S
C1445      C1446   1.403       .  A
C1445      H1456   1.083       .  S
C1446      C1447   1.404       .  A
C1447      C1448   1.400       .  A
C1447      H1457   1.083       .  S
C1448      H1458   1.082       .  S
C1459      C1460   1.407       .  A
C1459      C1464   1.408   1_455  A
C1460      C1461   1.402       .  A
C1460      H1473   1.083       .  S
C1461      C1462   1.405       .  A
C1461      H1474   1.083       .  S
C1462      C1465   1.495   1_455  S
C1462      C1463   1.408   1_455  A
C1463      C1464   1.405       .  A
C1463      H1475   1.082       .  S
C1464      H1476   1.083       .  S
C1465      H1477   1.086   1_655  S
C1465      C1466   1.352       .  D
C1466      H1478   1.086       .  S
C1466      C1467   1.496       .  S
C1467      C1468   1.404       .  A
C1467      C1472   1.404       .  A
C1468      C1469   1.404       .  A
C1468      H1479   1.083       .  S
C1469      C1470   1.411       .  A
C1469      H1480   1.078       .  S
C1470      C1471   1.414       .  A
C1471      C1472   1.402       .  A
C1471      H1481   1.080       .  S
C1472      H1482   1.082       .  S
C1483      C1484   1.405       .  A
C1483      C1488   1.406       .  A
C1484      C1485   1.400       .  A
C1484      H1497   1.083       .  S
C1485      C1486   1.406       .  A
C1485      H1498   1.083       .  S
C1486      C1489   1.496       .  S
C1486      C1487   1.409       .  A
C1487      C1488   1.401       .  A
C1487      H1499   1.080       .  S
C1488      H1500   1.083       .  S
C1489      H1501   1.086       .  S
C1489      C1490   1.352       .  D
C1490      H1502   1.083       .  S
C1490      C1491   1.491       .  S
C1491      C1492   1.405       .  A
C1491      C1496   1.406       .  A
C1492      C1493   1.403       .  A
C1492      H1503   1.083       .  S
C1493      C1494   1.406       .  A
C1493      H1504   1.082       .  S
C1494      C1495   1.407       .  A
C1495      C1496   1.398       .  A
C1495      H1505   1.082       .  S
C1496      H1506   1.082       .  S
C1507      C1508   1.402       .  A
C1507      C1512   1.404       .  A
C1508      C1509   1.393       .  A
C1508      H1521   1.083       .  S
C1509      C1510   1.402       .  A
C1509      H1522   1.084       .  S
C1510      C1513   1.478       .  S
C1510      C1511   1.407       .  A
C1511      C1512   1.399       .  A
C1511      H1523   1.083       .  S
C1512      H1524   1.083       .  S
C1513      H1525   1.086       .  S
C1513      C1514   1.346       .  D
C1514      H1526   1.086       .  S
C1514      C1515   1.481       .  S
C1515      C1516   1.403       .  A
C1515      C1520   1.407       .  A
C1516      C1517   1.394       .  A
C1516      H1527   1.084       .  S
C1517      C1518   1.402       .  A
C1517      H1528   1.083       .  S
C1518      C1519   1.404       .  A
C1519      C1520   1.398       .  A
C1519      H1529   1.083       .  S
C1520      H1530   1.082       .  S
C1531      C1532   1.406   1_545  A
C1531      C1536   1.405       .  A
C1532      C1533   1.401       .  A
C1532      H1545   1.083       .  S
C1533      C1534   1.405       .  A
C1533      H1546   1.083       .  S
C1534      C1537   1.492       .  S
C1534      C1535   1.408   1_565  A
C1535      C1536   1.399       .  A
C1535      H1547   1.082       .  S
C1536      H1548   1.083       .  S
C1537      H1549   1.083       .  S
C1537      C1538   1.351   1_565  D
C1538      H1550   1.085       .  S
C1538      C1539   1.494   1_545  S
C1539      C1540   1.406   1_565  A
C1539      C1544   1.410       .  A
C1540      C1541   1.397       .  A
C1540      H1551   1.083       .  S
C1541      C1542   1.403   1_545  A
C1541      H1552   1.082       .  S
C1542      C1543   1.407       .  A
C1543      C1544   1.402       .  A
C1543      H1553   1.083       .  S
C1544      H1554   1.080       .  S
C1555      C1556   1.403       .  A
C1555      C1560   1.405       .  A
C1556      C1557   1.396       .  A
C1556      H1569   1.083       .  S
C1557      C1558   1.404       .  A
C1557      H1570   1.083       .  S
C1558      C1561   1.485       .  S
C1558      C1559   1.407       .  A
C1559      C1560   1.397       .  A
C1559      H1571   1.081       .  S
C1560      H1572   1.083       .  S
C1561      H1573   1.087       .  S
C1561      C1562   1.347       .  D
C1562      H1574   1.084       .  S
C1562      C1563   1.478       .  S
C1563      C1564   1.401       .  A
C1563      C1568   1.407       .  A
C1564      C1565   1.393       .  A
C1564      H1575   1.083       .  S
C1565      C1566   1.403       .  A
C1565      H1576   1.083       .  S
C1566      C1567   1.404       .  A
C1567      C1568   1.399       .  A
C1567      H1577   1.083       .  S
C1568      H1578   1.083       .  S
C1579      C1580   1.403       .  A
C1579      C1584   1.403       .  A
C1580      C1581   1.395   1_655  A
C1580      H1593   1.083       .  S
C1581      C1582   1.402       .  A
C1581      H1594   1.084       .  S
C1582      C1585   1.480       .  S
C1582      C1583   1.407       .  A
C1583      C1584   1.397   1_455  A
C1583      H1595   1.082       .  S
C1584      H1596   1.084       .  S
C1585      H1597   1.086       .  S
C1585      C1586   1.346       .  D
C1586      H1598   1.087       .  S
C1586      C1587   1.482       .  S
C1587      C1588   1.402       .  A
C1587      C1592   1.407       .  A
C1588      C1589   1.394       .  A
C1588      H1599   1.084       .  S
C1589      C1590   1.403       .  A
C1589      H1600   1.083       .  S
C1590      C1591   1.405       .  A
C1591      C1592   1.399       .  A
C1591      H1601   1.083       .  S
C1592      H1602   1.081       .  S
C1603      C1604   1.406   1_565  A
C1603      C1608   1.407       .  A
C1604      C1605   1.404       .  A
C1604      H1617   1.083       .  S
C1605      C1606   1.406       .  A
C1605      H1618   1.083       .  S
C1606      C1609   1.492       .  S
C1606      C1607   1.407   1_545  A
C1607      C1608   1.400       .  A
C1607      H1619   1.082       .  S
C1608      H1620   1.083       .  S
C1609      H1621   1.086       .  S
C1609      C1610   1.349   1_545  D
C1610      H1622   1.086       .  S
C1610      C1611   1.490       .  S
C1611      C1612   1.404       .  A
C1611      C1616   1.408   1_565  A
C1612      C1613   1.400       .  A
C1612      H1623   1.083       .  S
C1613      C1614   1.404       .  A
C1613      H1624   1.083       .  S
C1614      C1615   1.406   1_565  A
C1615      C1616   1.403       .  A
C1615      H1625   1.083       .  S
C1616      H1626   1.082       .  S
C1627      C1628   1.402       .  A
C1627      C1632   1.406       .  A
C1628      C1629   1.393       .  A
C1628      H1641   1.083       .  S
C1629      C1630   1.402       .  A
C1629      H1642   1.084       .  S
C1630      C1633   1.482       .  S
C1630      C1631   1.408       .  A
C1631      C1632   1.402       .  A
C1631      H1643   1.082       .  S
C1632      H1644   1.083       .  S
C1633      H1645   1.087       .  S
C1633      C1634   1.346       .  D
C1634      H1646   1.086       .  S
C1634      C1635   1.482   1_655  S
C1635      C1636   1.401   1_455  A
C1635      C1640   1.408       .  A
C1636      C1637   1.394   1_655  A
C1636      H1647   1.084       .  S
C1637      C1638   1.404       .  A
C1637      H1648   1.083       .  S
C1638      C1639   1.405       .  A
C1639      C1640   1.401       .  A
C1639      H1649   1.083       .  S
C1640      H1650   1.083       .  S
C1651      C1652   1.403       .  A
C1651      C1656   1.405       .  A
C1652      C1653   1.392       .  A
C1652      H1665   1.083       .  S
C1653      C1654   1.401       .  A
C1653      H1666   1.084       .  S
C1654      C1657   1.477       .  S
C1654      C1655   1.407       .  A
C1655      C1656   1.398       .  A
C1655      H1667   1.082       .  S
C1656      H1668   1.083       .  S
C1657      H1669   1.086       .  S
C1657      C1658   1.345       .  D
C1658      H1670   1.085       .  S
C1658      C1659   1.480       .  S
C1659      C1660   1.403       .  A
C1659      C1664   1.407       .  A
C1660      C1661   1.397       .  A
C1660      H1671   1.083       .  S
C1661      C1662   1.404       .  A
C1661      H1672   1.083       .  S
C1662      C1663   1.401       .  A
C1663      C1664   1.393       .  A
C1663      H1673   1.083       .  S
C1664      H1674   1.082       .  S
C1675      C1676   1.404       .  A
C1675      C1680   1.410       .  A
C1676      C1677   1.402       .  A
C1676      H1689   1.083       .  S
C1677      C1678   1.406       .  A
C1677      H1690   1.083       .  S
C1678      C1681   1.500       .  S
C1678      C1679   1.409       .  A
C1679      C1680   1.408       .  A
C1679      H1691   1.082       .  S
C1680      H1692   1.082       .  S
C1681      H1693   1.086       .  S
C1681      C1682   1.354       .  D
C1682      H1694   1.085       .  S
C1682      C1683   1.501       .  S
C1683      C1684   1.408       .  A
C1683      C1688   1.407       .  A
C1684      C1685   1.408       .  A
C1684      H1695   1.083       .  S
C1685      C1686   1.406       .  A
C1685      H1696   1.080       .  S
C1686      C1687   1.410       .  A
C1687      C1688   1.401       .  A
C1687      H1697   1.082       .  S
C1688      H1698   1.082       .  S
C1699      C1700   1.411       .  A
C1699      C1704   1.408       .  A
C1700      C1701   1.405       .  A
C1700      H1713   1.081       .  S
C1701      C1702   1.406       .  A
C1701      H1714   1.083       .  S
C1702      C1705   1.506       .  S
C1702      C1703   1.410       .  A
C1703      C1704   1.405       .  A
C1703      H1715   1.080       .  S
C1704      H1716   1.076       .  S
C1705      H1717   1.084       .  S
C1705      C1706   1.355       .  D
C1706      H1718   1.084       .  S
C1706      C1707   1.505       .  S
C1707      C1708   1.404       .  A
C1707      C1712   1.412       .  A
C1708      C1709   1.399       .  A
C1708      H1719   1.084       .  S
C1709      C1710   1.410       .  A
C1709      H1720   1.083       .  S
C1710      C1711   1.413       .  A
C1711      C1712   1.412       .  A
C1711      H1721   1.079       .  S
C1712      H1722   1.080       .  S
C1723      C1724   1.407       .  A
C1723      C1728   1.409       .  A
C1724      C1725   1.405       .  A
C1724      H1737   1.082       .  S
C1725      C1726   1.408       .  A
C1725      H1738   1.083       .  S
C1726      C1729   1.506       .  S
C1726      C1727   1.410       .  A
C1727      C1728   1.404       .  A
C1727      H1739   1.080       .  S
C1728      H1740   1.081       .  S
C1729      H1741   1.083       .  S
C1729      C1730   1.356       .  D
C1730      H1742   1.083       .  S
C1730      C1731   1.506       .  S
C1731      C1732   1.407       .  A
C1731      C1736   1.412       .  A
C1732      C1733   1.402       .  A
C1732      H1743   1.083       .  S
C1733      C1734   1.406       .  A
C1733      H1744   1.082       .  S
C1734      C1735   1.408       .  A
C1735      C1736   1.408       .  A
C1735      H1745   1.083       .  S
C1736      H1746   1.079       .  S
C1747      C1748   1.402       .  A
C1747      C1752   1.407       .  A
C1748      C1749   1.397       .  A
C1748      H1761   1.083       .  S
C1749      C1750   1.406       .  A
C1749      H1762   1.083       .  S
C1750      C1753   1.494       .  S
C1750      C1751   1.410       .  A
C1751      C1752   1.404       .  A
C1751      H1763   1.080       .  S
C1752      H1764   1.083       .  S
C1753      H1765   1.084       .  S
C1753      C1754   1.352       .  D
C1754      H1766   1.084       .  S
C1754      C1755   1.495       .  S
C1755      C1756   1.408       .  A
C1755      C1760   1.408       .  A
C1756      C1757   1.405       .  A
C1756      H1767   1.083       .  S
C1757      C1758   1.403       .  A
C1757      H1768   1.083       .  S
C1758      C1759   1.405       .  A
C1759      C1760   1.396       .  A
C1759      H1769   1.083       .  S
C1760      H1770   1.081       .  S
C1771      C1772   1.410       .  A
C1771      C1776   1.413       .  A
C1772      C1773   1.401       .  A
C1772      H1785   1.083       .  S
C1773      C1774   1.404       .  A
C1773      H1786   1.084       .  S
C1774      C1777   1.508       .  S
C1774      C1775   1.413       .  A
C1775      C1776   1.413       .  A
C1775      H1787   1.080       .  S
C1776      H1788   1.079       .  S
C1777      H1789   1.084       .  S
C1777      C1778   1.355       .  D
C1778      H1790   1.084       .  S
C1778      C1779   1.509       .  S
C1779      C1780   1.406       .  A
C1779      C1784   1.412       .  A
C1780      C1781   1.404       .  A
C1780      H1791   1.083       .  S
C1781      C1782   1.410       .  A
C1781      H1792   1.082       .  S
C1782      C1783   1.409       .  A
C1783      C1784   1.409       .  A
C1783      H1793   1.082       .  S
C1784      H1794   1.081       .  S
C1795      C1796   1.403       .  A
C1795      C1800   1.405       .  A
C1796      C1797   1.397       .  A
C1796      H1809   1.083       .  S
C1797      C1798   1.405       .  A
C1797      H1810   1.084       .  S
C1798      C1801   1.497       .  S
C1798      C1799   1.412       .  A
C1799      C1800   1.407       .  A
C1799      H1811   1.080       .  S
C1800      H1812   1.083       .  S
C1801      H1813   1.085       .  S
C1801      C1802   1.352       .  D
C1802      H1814   1.084       .  S
C1802      C1803   1.498       .  S
C1803      C1804   1.406       .  A
C1803      C1808   1.409       .  A
C1804      C1805   1.404       .  A
C1804      H1815   1.083       .  S
C1805      C1806   1.406       .  A
C1805      H1816   1.082       .  S
C1806      C1807   1.408       .  A
C1807      C1808   1.400       .  A
C1807      H1817   1.083       .  S
C1808      H1818   1.081       .  S
C1819      C1820   1.407       .  A
C1819      C1824   1.405       .  A
C1820      C1821   1.396       .  A
C1820      H1833   1.082       .  S
C1821      C1822   1.401       .  A
C1821      H1834   1.083       .  S
C1822      C1825   1.491       .  S
C1822      C1823   1.411       .  A
C1823      C1824   1.406       .  A
C1823      H1835   1.082       .  S
C1824      H1836   1.083       .  S
C1825      H1837   1.084       .  S
C1825      C1826   1.348       .  D
C1826      H1838   1.086       .  S
C1826      C1827   1.495       .  S
C1827      C1828   1.403       .  A
C1827      C1832   1.412       .  A
C1828      C1829   1.398       .  A
C1828      H1839   1.083       .  S
C1829      C1830   1.407       .  A
C1829      H1840   1.083       .  S
C1830      C1831   1.406       .  A
C1831      C1832   1.404       .  A
C1831      H1841   1.083       .  S
C1832      H1842   1.081       .  S
C1843      C1844   1.406       .  A
C1843      C1848   1.410       .  A
C1844      C1845   1.398       .  A
C1844      H1857   1.082       .  S
C1845      C1846   1.405       .  A
C1845      H1858   1.083       .  S
C1846      C1849   1.500       .  S
C1846      C1847   1.412       .  A
C1847      C1848   1.409       .  A
C1847      H1859   1.080       .  S
C1848      H1860   1.082       .  S
C1849      H1861   1.082       .  S
C1849      C1850   1.353       .  D
C1850      H1862   1.084       .  S
C1850      C1851   1.504       .  S
C1851      C1852   1.406       .  A
C1851      C1856   1.411       .  A
C1852      C1853   1.404       .  A
C1852      H1863   1.083       .  S
C1853      C1854   1.412       .  A
C1853      H1864   1.078       .  S
C1854      C1855   1.409       .  A
C1855      C1856   1.402       .  A
C1855      H1865   1.083       .  S
C1856      H1866   1.079       .  S
C1867      C1868   1.407       .  A
C1867      C1872   1.410       .  A
C1868      C1869   1.402       .  A
C1868      H1881   1.082       .  S
C1869      C1870   1.407       .  A
C1869      H1882   1.083       .  S
C1870      C1873   1.504       .  S
C1870      C1871   1.410       .  A
C1871      C1872   1.407       .  A
C1871      H1883   1.080       .  S
C1872      H1884   1.082       .  S
C1873      H1885   1.083       .  S
C1873      C1874   1.357       .  D
C1874      H1886   1.083       .  S
C1874      C1875   1.504       .  S
C1875      C1876   1.411       .  A
C1875      C1880   1.408       .  A
C1876      C1877   1.408       .  A
C1876      H1887   1.083       .  S
C1877      C1878   1.403       .  A
C1877      H1888   1.083       .  S
C1878      C1879   1.408       .  A
C1879      C1880   1.400       .  A
C1879      H1889   1.083       .  S
C1880      H1890   1.080       .  S
C1891      C1892   1.404   1_655  A
C1891      C1896   1.404       .  A
C1892      C1893   1.398       .  A
C1892      H1905   1.083       .  S
C1893      C1894   1.403   1_455  A
C1893      H1906   1.083       .  S
C1894      C1897   1.489       .  S
C1894      C1895   1.409       .  A
C1895      C1896   1.403       .  A
C1895      H1907   1.082       .  S
C1896      H1908   1.083       .  S
C1897      H1909   1.083   1_655  S
C1897      C1898   1.349       .  D
C1898      H1910   1.086       .  S
C1898      C1899   1.495       .  S
C1899      C1900   1.405       .  A
C1899      C1904   1.411       .  A
C1900      C1901   1.398       .  A
C1900      H1911   1.084       .  S
C1901      C1902   1.406       .  A
C1901      H1912   1.083       .  S
C1902      C1903   1.405       .  A
C1903      C1904   1.403       .  A
C1903      H1913   1.083   1_655  S
C1904      H1914   1.080   1_655  S
C1915      C1916   1.410       .  A
C1915      C1920   1.413       .  A
C1916      C1917   1.411       .  A
C1916      H1929   1.081       .  S
C1917      C1918   1.410       .  A
C1917      H1930   1.083       .  S
C1918      C1921   1.508       .  S
C1918      C1919   1.406       .  A
C1919      C1920   1.402       .  A
C1919      H1931   1.081       .  S
C1920      H1932   1.083       .  S
C1921      H1933   1.084       .  S
C1921      C1922   1.359       .  D
C1922      H1934   1.085       .  S
C1922      C1923   1.508       .  S
C1923      C1924   1.409       .  A
C1923      C1928   1.410       .  A
C1924      C1925   1.406       .  A
C1924      H1935   1.083       .  S
C1925      C1926   1.407       .  A
C1925      H1936   1.082       .  S
C1926      C1927   1.411       .  A
C1927      C1928   1.408       .  A
C1927      H1937   1.082       .  S
C1928      H1938   1.080       .  S
C1939      C1940   1.408       .  A
C1939      C1944   1.410       .  A
C1940      C1941   1.405       .  A
C1940      H1953   1.082       .  S
C1941      C1942   1.408       .  A
C1941      H1954   1.083       .  S
C1942      C1945   1.516       .  S
C1942      C1943   1.414       .  A
C1943      C1944   1.416       .  A
C1943      H1955   1.081       .  S
C1944      H1956   1.083       .  S
C1945      H1957   1.082       .  S
C1945      C1946   1.361       .  D
C1946      H1958   1.084       .  S
C1946      C1947   1.519       .  S
C1947      C1948   1.411       .  A
C1947      C1952   1.413       .  A
C1948      C1949   1.410       .  A
C1948      H1959   1.083       .  S
C1949      C1950   1.408       .  A
C1949      H1960   1.082       .  S
C1950      C1951   1.412       .  A
C1951      C1952   1.410       .  A
C1951      H1961   1.082       .  S
C1952      H1962   1.079       .  S
C1963      C1964   1.404       .  A
C1963      C1968   1.409   1_565  A
C1964      C1965   1.402       .  A
C1964      H1977   1.082       .  S
C1965      C1966   1.407       .  A
C1965      H1978   1.083       .  S
C1966      C1969   1.499       .  S
C1966      C1967   1.409   1_565  A
C1967      C1968   1.403       .  A
C1967      H1979   1.080       .  S
C1968      H1980   1.082       .  S
C1969      H1981   1.084       .  S
C1969      C1970   1.355   1_565  D
C1970      H1982   1.083       .  S
C1970      C1971   1.498       .  S
C1971      C1972   1.408       .  A
C1971      C1976   1.408   1_545  A
C1972      C1973   1.405       .  A
C1972      H1983   1.083       .  S
C1973      C1974   1.406       .  A
C1973      H1984   1.083       .  S
C1974      C1975   1.405   1_545  A
C1975      C1976   1.400       .  A
C1975      H1985   1.083       .  S
C1976      H1986   1.081       .  S
C1987      C1988   1.411   1_545  A
C1987      C1992   1.414       .  A
C1988      C1989   1.407   1_565  A
C1988      H2001   1.078       .  S
C1989      C1990   1.407       .  A
C1989      H2002   1.083   1_545  S
C1990      C1993   1.506       .  S
C1990      C1991   1.408       .  A
C1991      C1992   1.406       .  A
C1991      H2003   1.081       .  S
C1992      H2004   1.083       .  S
C1993      H2005   1.084       .  S
C1993      C1994   1.357       .  D
C1994      H2006   1.085       .  S
C1994      C1995   1.506       .  S
C1995      C1996   1.409       .  A
C1995      C2000   1.409       .  A
C1996      C1997   1.408       .  A
C1996      H2007   1.083       .  S
C1997      C1998   1.407       .  A
C1997      H2008   1.083       .  S
C1998      C1999   1.409       .  A
C1999      C2000   1.405       .  A
C1999      H2009   1.082       .  S
C2000      H2010   1.081       .  S
C2011      C2012   1.406       .  A
C2011      C2016   1.406       .  A
C2012      C2013   1.401       .  A
C2012      H2025   1.083       .  S
C2013      C2014   1.404       .  A
C2013      H2026   1.083       .  S
C2014      C2017   1.495       .  S
C2014      C2015   1.409       .  A
C2015      C2016   1.406       .  A
C2015      H2027   1.082       .  S
C2016      H2028   1.080       .  S
C2017      H2029   1.084       .  S
C2017      C2018   1.352       .  D
C2018      H2030   1.086       .  S
C2018      C2019   1.499       .  S
C2019      C2020   1.407       .  A
C2019      C2024   1.409       .  A
C2020      C2021   1.404       .  A
C2020      H2031   1.083       .  S
C2021      C2022   1.406       .  A
C2021      H2032   1.082       .  S
C2022      C2023   1.409       .  A
C2023      C2024   1.402       .  A
C2023      H2033   1.083       .  S
C2024      H2034   1.081       .  S
C2035      C2036   1.406       .  A
C2035      C2040   1.407       .  A
C2036      C2037   1.405       .  A
C2036      H2049   1.083       .  S
C2037      C2038   1.407       .  A
C2037      H2050   1.083       .  S
C2038      C2041   1.493       .  S
C2038      C2039   1.406       .  A
C2039      C2040   1.397       .  A
C2039      H2051   1.082       .  S
C2040      H2052   1.083       .  S
C2041      H2053   1.085       .  S
C2041      C2042   1.351       .  D
C2042      H2054   1.086       .  S
C2042      C2043   1.492       .  S
C2043      C2044   1.406       .  A
C2043      C2048   1.407       .  A
C2044      C2045   1.402       .  A
C2044      H2055   1.083       .  S
C2045      C2046   1.403       .  A
C2045      H2056   1.080       .  S
C2046      C2047   1.409       .  A
C2047      C2048   1.400       .  A
C2047      H2057   1.083       .  S
C2048      H2058   1.082       .  S
C2059      C2060   1.411       .  A
C2059      C2064   1.411       .  A
C2060      C2061   1.411       .  A
C2060      H2073   1.079       .  S
C2061      C2062   1.409       .  A
C2061      H2074   1.083       .  S
C2062      C2065   1.501       .  S
C2062      C2063   1.405       .  A
C2063      C2064   1.397       .  A
C2063      H2075   1.082       .  S
C2064      H2076   1.083       .  S
C2065      H2077   1.086       .  S
C2065      C2066   1.354       .  D
C2066      H2078   1.086       .  S
C2066      C2067   1.497       .  S
C2067      C2068   1.405       .  A
C2067      C2072   1.410       .  A
C2068      C2069   1.400       .  A
C2068      H2079   1.083       .  S
C2069      C2070   1.405       .  A
C2069      H2080   1.083       .  S
C2070      C2071   1.409       .  A
C2071      C2072   1.410       .  A
C2071      H2081   1.083       .  S
C2072      H2082   1.082       .  S
C2083      C2084   1.409       .  A
C2083      C2088   1.414       .  A
C2084      C2085   1.403       .  A
C2084      H2097   1.083       .  S
C2085      C2086   1.406       .  A
C2085      H2098   1.083       .  S
C2086      C2089   1.501       .  S
C2086      C2087   1.407       .  A
C2087      C2088   1.402       .  A
C2087      H2099   1.080       .  S
C2088      H2100   1.076       .  S
C2089      H2101   1.085       .  S
C2089      C2090   1.355       .  D
C2090      H2102   1.083       .  S
C2090      C2091   1.499       .  S
C2091      C2092   1.407       .  A
C2091      C2096   1.406       .  A
C2092      C2093   1.407       .  A
C2092      H2103   1.083   1_655  S
C2093      C2094   1.410       .  A
C2093      H2104   1.078   1_655  S
C2094      C2095   1.411       .  A
C2095      C2096   1.399       .  A
C2095      H2105   1.083       .  S
C2096      H2106   1.081       .  S
C2107      C2108   1.409       .  A
C2107      C2112   1.413       .  A
C2108      C2109   1.398       .  A
C2108      H2121   1.083       .  S
C2109      C2110   1.404       .  A
C2109      H2122   1.083       .  S
C2110      C2113   1.508       .  S
C2110      C2111   1.413       .  A
C2111      C2112   1.415       .  A
C2111      H2123   1.081       .  S
C2112      H2124   1.079       .  S
C2113      H2125   1.085       .  S
C2113      C2114   1.355       .  D
C2114      H2126   1.084       .  S
C2114      C2115   1.508       .  S
C2115      C2116   1.406       .  A
C2115      C2120   1.411       .  A
C2116      C2117   1.406       .  A
C2116      H2127   1.083       .  S
C2117      C2118   1.411       .  A
C2117      H2128   1.081       .  S
C2118      C2119   1.409       .  A
C2119      C2120   1.407       .  A
C2119      H2129   1.082       .  S
C2120      H2130   1.081       .  S
C2131      C2132   1.401   1_655  A
C2131      C2136   1.404       .  A
C2132      C2133   1.400       .  A
C2132      H2145   1.083       .  S
C2133      C2134   1.407   1_455  A
C2133      H2146   1.083       .  S
C2134      C2137   1.490   1_655  S
C2134      C2135   1.408       .  A
C2135      C2136   1.400       .  A
C2135      H2147   1.081       .  S
C2136      H2148   1.083       .  S
C2137      H2149   1.087       .  S
C2137      C2138   1.349   1_455  D
C2138      H2150   1.085       .  S
C2138      C2139   1.488       .  S
C2139      C2140   1.404       .  A
C2139      C2144   1.406   1_655  A
C2140      C2141   1.402       .  A
C2140      H2151   1.083       .  S
C2141      C2142   1.406       .  A
C2141      H2152   1.083       .  S
C2142      C2143   1.407   1_655  A
C2143      C2144   1.400       .  A
C2143      H2153   1.083       .  S
C2144      H2154   1.083       .  S
C2155      C2156   1.410       .  A
C2155      C2160   1.414   1_565  A
C2156      C2157   1.404   1_565  A
C2156      H2169   1.083       .  S
C2157      C2158   1.405       .  A
C2157      H2170   1.083   1_545  S
C2158      C2161   1.499       .  S
C2158      C2159   1.407       .  A
C2159      C2160   1.403       .  A
C2159      H2171   1.081       .  S
C2160      H2172   1.078       .  S
C2161      H2173   1.085       .  S
C2161      C2162   1.353       .  D
C2162      H2174   1.085       .  S
C2162      C2163   1.498       .  S
C2163      C2164   1.406       .  A
C2163      C2168   1.406       .  A
C2164      C2165   1.405       .  A
C2164      H2175   1.083       .  S
C2165      C2166   1.411       .  A
C2165      H2176   1.078       .  S
C2166      C2167   1.412       .  A
C2167      C2168   1.402       .  A
C2167      H2177   1.083       .  S
C2168      H2178   1.081       .  S
C2179      C2180   1.405       .  A
C2179      C2184   1.405       .  A
C2180      C2181   1.399       .  A
C2180      H2193   1.083       .  S
C2181      C2182   1.406       .  A
C2181      H2194   1.083       .  S
C2182      C2185   1.501       .  S
C2182      C2183   1.413       .  A
C2183      C2184   1.406       .  A
C2183      H2195   1.080       .  S
C2184      H2196   1.083       .  S
C2185      H2197   1.084       .  S
C2185      C2186   1.354       .  D
C2186      H2198   1.083       .  S
C2186      C2187   1.501       .  S
C2187      C2188   1.408       .  A
C2187      C2192   1.411       .  A
C2188      C2189   1.403       .  A
C2188      H2199   1.083       .  S
C2189      C2190   1.404       .  A
C2189      H2200   1.083       .  S
C2190      C2191   1.407       .  A
C2191      C2192   1.403       .  A
C2191      H2201   1.083       .  S
C2192      H2202   1.080       .  S
C2203      C2204   1.412       .  A
C2203      C2208   1.412       .  A
C2204      C2205   1.407       .  A
C2204      H2217   1.078       .  S
C2205      C2206   1.407       .  A
C2205      H2218   1.083       .  S
C2206      C2209   1.508       .  S
C2206      C2207   1.409       .  A
C2207      C2208   1.405       .  A
C2207      H2219   1.081       .  S
C2208      H2220   1.083       .  S
C2209      H2221   1.085       .  S
C2209      C2210   1.355       .  D
C2210      H2222   1.084       .  S
C2210      C2211   1.504       .  S
C2211      C2212   1.405       .  A
C2211      C2216   1.410       .  A
C2212      C2213   1.402       .  A
C2212      H2223   1.083       .  S
C2213      C2214   1.407       .  A
C2213      H2224   1.081       .  S
C2214      C2215   1.413       .  A
C2215      C2216   1.411       .  A
C2215      H2225   1.082       .  S
C2216      H2226   1.082       .  S
C2227      C2228   1.406       .  A
C2227      C2232   1.407   1_545  A
C2228      C2229   1.402       .  A
C2228      H2241   1.083       .  S
C2229      C2230   1.404       .  A
C2229      H2242   1.083       .  S
C2230      C2233   1.490       .  S
C2230      C2231   1.407   1_545  A
C2231      C2232   1.403       .  A
C2231      H2243   1.083       .  S
C2232      H2244   1.083       .  S
C2233      H2245   1.086       .  S
C2233      C2234   1.348   1_545  D
C2234      H2246   1.086       .  S
C2234      C2235   1.488       .  S
C2235      C2236   1.404       .  A
C2235      C2240   1.407   1_565  A
C2236      C2237   1.399       .  A
C2236      H2247   1.083       .  S
C2237      C2238   1.403       .  A
C2237      H2248   1.083       .  S
C2238      C2239   1.407   1_565  A
C2239      C2240   1.404       .  A
C2239      H2249   1.083       .  S
C2240      H2250   1.083       .  S
C2251      C2252   1.407       .  A
C2251      C2256   1.405       .  A
C2252      C2253   1.401       .  A
C2252      H2265   1.083       .  S
C2253      C2254   1.405       .  A
C2253      H2266   1.083       .  S
C2254      C2257   1.496       .  S
C2254      C2255   1.410       .  A
C2255      C2256   1.401       .  A
C2255      H2267   1.081       .  S
C2256      H2268   1.083       .  S
C2257      H2269   1.084       .  S
C2257      C2258   1.351       .  D
C2258      H2270   1.084       .  S
C2258      C2259   1.494       .  S
C2259      C2260   1.404       .  A
C2259      C2264   1.411       .  A
C2260      C2261   1.396       .  A
C2260      H2271   1.083       .  S
C2261      C2262   1.404       .  A
C2261      H2272   1.083       .  S
C2262      C2263   1.406       .  A
C2263      C2264   1.406       .  A
C2263      H2273   1.083       .  S
C2264      H2274   1.081       .  S
C2275      C2276   1.406       .  A
C2275      C2280   1.405       .  A
C2276      C2277   1.404       .  A
C2276      H2289   1.083       .  S
C2277      C2278   1.406       .  A
C2277      H2290   1.083       .  S
C2278      C2281   1.487       .  S
C2278      C2279   1.405       .  A
C2279      C2280   1.393       .  A
C2279      H2291   1.082       .  S
C2280      H2292   1.083       .  S
C2281      H2293   1.085       .  S
C2281      C2282   1.350       .  D
C2282      H2294   1.086       .  S
C2282      C2283   1.488       .  S
C2283      C2284   1.405       .  A
C2283      C2288   1.405       .  A
C2284      C2285   1.399       .  A
C2284      H2295   1.083       .  S
C2285      C2286   1.404       .  A
C2285      H2296   1.082       .  S
C2286      C2287   1.409       .  A
C2287      C2288   1.398       .  A
C2287      H2297   1.082       .  S
C2288      H2298   1.081       .  S
C2299      C2300   1.404       .  A
C2299      C2304   1.402       .  A
C2300      C2301   1.398       .  A
C2300      H2313   1.083       .  S
C2301      C2302   1.405       .  A
C2301      H2314   1.083       .  S
C2302      C2305   1.478       .  S
C2302      C2303   1.403       .  A
C2303      C2304   1.394       .  A
C2303      H2315   1.084       .  S
C2304      H2316   1.083       .  S
C2305      H2317   1.087       .  S
C2305      C2306   1.346       .  D
C2306      H2318   1.087       .  S
C2306      C2307   1.477       .  S
C2307      C2308   1.402       .  A
C2307      C2312   1.405       .  A
C2308      C2309   1.394       .  A
C2308      H2319   1.084       .  S
C2309      C2310   1.402       .  A
C2309      H2320   1.083       .  S
C2310      C2311   1.405       .  A
C2311      C2312   1.399       .  A
C2311      H2321   1.083       .  S
C2312      H2322   1.083   1_655  S
C2323      C2324   1.403       .  A
C2323      C2328   1.407       .  A
C2324      C2325   1.401       .  A
C2324      H2337   1.082       .  S
C2325      C2326   1.408       .  A
C2325      H2338   1.083       .  S
C2326      C2329   1.497       .  S
C2326      C2327   1.409       .  A
C2327      C2328   1.399       .  A
C2327      H2339   1.079       .  S
C2328      H2340   1.083       .  S
C2329      H2341   1.084       .  S
C2329      C2330   1.354       .  D
C2330      H2342   1.082       .  S
C2330      C2331   1.494       .  S
C2331      C2332   1.406       .  A
C2331      C2336   1.408       .  A
C2332      C2333   1.401       .  A
C2332      H2343   1.083       .  S
C2333      C2334   1.404       .  A
C2333      H2344   1.083       .  S
C2334      C2335   1.405       .  A
C2335      C2336   1.400       .  A
C2335      H2345   1.083       .  S
C2336      H2346   1.081       .  S
C2347      C2348   1.405       .  A
C2347      C2352   1.407       .  A
C2348      C2349   1.406       .  A
C2348      H2361   1.083       .  S
C2349      C2350   1.408       .  A
C2349      H2362   1.083       .  S
C2350      C2353   1.492       .  S
C2350      C2351   1.405       .  A
C2351      C2352   1.396       .  A
C2351      H2363   1.082       .  S
C2352      H2364   1.083       .  S
C2353      H2365   1.083       .  S
C2353      C2354   1.355       .  D
C2354      H2366   1.085       .  S
C2354      C2355   1.496       .  S
C2355      C2356   1.408       .  A
C2355      C2360   1.406       .  A
C2356      C2357   1.404       .  A
C2356      H2367   1.084       .  S
C2357      C2358   1.406       .  A
C2357      H2368   1.079       .  S
C2358      C2359   1.410       .  A
C2359      C2360   1.397       .  A
C2359      H2369   1.081       .  S
C2360      H2370   1.079       .  S
C2371      C2372   1.401       .  A
C2371      C2376   1.404       .  A
C2372      C2373   1.391       .  A
C2372      H2385   1.083       .  S
C2373      C2374   1.402       .  A
C2373      H2386   1.084       .  S
C2374      C2377   1.483       .  S
C2374      C2375   1.410       .  A
C2375      C2376   1.402       .  A
C2375      H2387   1.080       .  S
C2376      H2388   1.083       .  S
C2377      H2389   1.088       .  S
C2377      C2378   1.344       .  D
C2378      H2390   1.084       .  S
C2378      C2379   1.479       .  S
C2379      C2380   1.401       .  A
C2379      C2384   1.406       .  A
C2380      C2381   1.401       .  A
C2380      H2391   1.083       .  S
C2381      C2382   1.408       .  A
C2381      H2392   1.083       .  S
C2382      C2383   1.402       .  A
C2383      C2384   1.391       .  A
C2383      H2393   1.083       .  S
C2384      H2394   1.083       .  S
C2395      C2396   1.404       .  A
C2395      C2400   1.407       .  A
C2396      C2397   1.400       .  A
C2396      H2409   1.077       .  S
C2397      C2398   1.403       .  A
C2397      H2410   1.083       .  S
C2398      C2401   1.488       .  S
C2398      C2399   1.406       .  A
C2399      C2400   1.401       .  A
C2399      H2411   1.082       .  S
C2400      H2412   1.082       .  S
C2401      H2413   1.087       .  S
C2401      C2402   1.349       .  D
C2402      H2414   1.086       .  S
C2402      C2403   1.487       .  S
C2403      C2404   1.404       .  A
C2403      C2408   1.406       .  A
C2404      C2405   1.402       .  A
C2404      H2415   1.083       .  S
C2405      C2406   1.406       .  A
C2405      H2416   1.083       .  S
C2406      C2407   1.406       .  A
C2407      C2408   1.399       .  A
C2407      H2417   1.083       .  S
C2408      H2418   1.083       .  S
C2419      C2420   1.402       .  A
C2419      C2424   1.405       .  A
C2420      C2421   1.394       .  A
C2420      H2433   1.083       .  S
C2421      C2422   1.404       .  A
C2421      H2434   1.084       .  S
C2422      C2425   1.483       .  S
C2422      C2423   1.407       .  A
C2423      C2424   1.399       .  A
C2423      H2435   1.081       .  S
C2424      H2436   1.083       .  S
C2425      H2437   1.086       .  S
C2425      C2426   1.348       .  D
C2426      H2438   1.085       .  S
C2426      C2427   1.482       .  S
C2427      C2428   1.402       .  A
C2427      C2432   1.406       .  A
C2428      C2429   1.396       .  A
C2428      H2439   1.083       .  S
C2429      C2430   1.404       .  A
C2429      H2440   1.083       .  S
C2430      C2431   1.405       .  A
C2431      C2432   1.396       .  A
C2431      H2441   1.083       .  S
C2432      H2442   1.083       .  S
C2443      C2444   1.404       .  A
C2443      C2448   1.404       .  A
C2444      C2445   1.398       .  A
C2444      H2457   1.083       .  S
C2445      C2446   1.403       .  A
C2445      H2458   1.084       .  S
C2446      C2449   1.478       .  S
C2446      C2447   1.405       .  A
C2447      C2448   1.391       .  A
C2447      H2459   1.082       .  S
C2448      H2460   1.083       .  S
C2449      H2461   1.083       .  S
C2449      C2450   1.347       .  D
C2450      H2462   1.086       .  S
C2450      C2451   1.481       .  S
C2451      C2452   1.404       .  A
C2451      C2456   1.407       .  A
C2452      C2453   1.394       .  A
C2452      H2463   1.084       .  S
C2453      C2454   1.402       .  A
C2453      H2464   1.083       .  S
C2454      C2455   1.403       .  A
C2455      C2456   1.395       .  A
C2455      H2465   1.083       .  S
C2456      H2466   1.080       .  S
C2467      C2468   1.403       .  A
C2467      C2472   1.404       .  A
C2468      C2469   1.398       .  A
C2468      H2481   1.083       .  S
C2469      C2470   1.405       .  A
C2469      H2482   1.084       .  S
C2470      C2473   1.491       .  S
C2470      C2471   1.410       .  A
C2471      C2472   1.401       .  A
C2471      H2483   1.080       .  S
C2472      H2484   1.083       .  S
C2473      H2485   1.085       .  S
C2473      C2474   1.349       .  D
C2474      H2486   1.083       .  S
C2474      C2475   1.488       .  S
C2475      C2476   1.405       .  A
C2475      C2480   1.408       .  A
C2476      C2477   1.399       .  A
C2476      H2487   1.083       .  S
C2477      C2478   1.403       .  A
C2477      H2488   1.083       .  S
C2478      C2479   1.403       .  A
C2479      C2480   1.398       .  A
C2479      H2489   1.083       .  S
C2480      H2490   1.081       .  S
C2491      C2492   1.402       .  A
C2491      C2496   1.405       .  A
C2492      C2493   1.394       .  A
C2492      H2505   1.083       .  S
C2493      C2494   1.404       .  A
C2493      H2506   1.084       .  S
C2494      C2497   1.480       .  S
C2494      C2495   1.406       .  A
C2495      C2496   1.397       .  A
C2495      H2507   1.082       .  S
C2496      H2508   1.083       .  S
C2497      H2509   1.086       .  S
C2497      C2498   1.347       .  D
C2498      H2510   1.085       .  S
C2498      C2499   1.480       .  S
C2499      C2500   1.403       .  A
C2499      C2504   1.406       .  A
C2500      C2501   1.396       .  A
C2500      H2511   1.083       .  S
C2501      C2502   1.404       .  A
C2501      H2512   1.083       .  S
C2502      C2503   1.404       .  A
C2503      C2504   1.395       .  A
C2503      H2513   1.083       .  S
C2504      H2514   1.083       .  S
C2515      C2516   1.402       .  A
C2515      C2520   1.404       .  A
C2516      C2517   1.391       .  A
C2516      H2529   1.083       .  S
C2517      C2518   1.402       .  A
C2517      H2530   1.083       .  S
C2518      C2521   1.479       .  S
C2518      C2519   1.408       .  A
C2519      C2520   1.398       .  A
C2519      H2531   1.080       .  S
C2520      H2532   1.083       .  S
C2521      H2533   1.087       .  S
C2521      C2522   1.345       .  D
C2522      H2534   1.083       .  S
C2522      C2523   1.478       .  S
C2523      C2524   1.402       .  A
C2523      C2528   1.405       .  A
C2524      C2525   1.399       .  A
C2524      H2535   1.083       .  S
C2525      C2526   1.405       .  A
C2525      H2536   1.083       .  S
C2526      C2527   1.402       .  A
C2527      C2528   1.391       .  A
C2527      H2537   1.083       .  S
C2528      H2538   1.083       .  S
C2539      C2540   1.405       .  A
C2539      C2544   1.406       .  A
C2540      C2541   1.403       .  A
C2540      H2553   1.083       .  S
C2541      C2542   1.406       .  A
C2541      H2554   1.083       .  S
C2542      C2545   1.498       .  S
C2542      C2543   1.410       .  A
C2543      C2544   1.400       .  A
C2543      H2555   1.081       .  S
C2544      H2556   1.083       .  S
C2545      H2557   1.084       .  S
C2545      C2546   1.351       .  D
C2546      H2558   1.084       .  S
C2546      C2547   1.495       .  S
C2547      C2548   1.405       .  A
C2547      C2552   1.411       .  A
C2548      C2549   1.397       .  A
C2548      H2559   1.083       .  S
C2549      C2550   1.403       .  A
C2549      H2560   1.083       .  S
C2550      C2551   1.406       .  A
C2551      C2552   1.405       .  A
C2551      H2561   1.083       .  S
C2552      H2562   1.081       .  S
C2563      C2564   1.406       .  A
C2563      C2568   1.407       .  A
C2564      C2565   1.406       .  A
C2564      H2577   1.083       .  S
C2565      C2566   1.408       .  A
C2565      H2578   1.083       .  S
C2566      C2569   1.500       .  S
C2566      C2567   1.409       .  A
C2567      C2568   1.402       .  A
C2567      H2579   1.081       .  S
C2568      H2580   1.083       .  S
C2569      H2581   1.085       .  S
C2569      C2570   1.352       .  D
C2570      H2582   1.085       .  S
C2570      C2571   1.497       .  S
C2571      C2572   1.409       .  A
C2571      C2576   1.404       .  A
C2572      C2573   1.407       .  A
C2572      H2583   1.082       .  S
C2573      C2574   1.408       .  A
C2573      H2584   1.080       .  S
C2574      C2575   1.408       .  A
C2575      C2576   1.400       .  A
C2575      H2585   1.082       .  S
C2576      H2586   1.083       .  S
C2587      C2588   1.402       .  A
C2587      C2592   1.403       .  A
C2588      C2589   1.404       .  A
C2588      H2601   1.081       .  S
C2589      C2590   1.409       .  A
C2589      H2602   1.083       .  S
C2590      C2593   1.504       .  S
C2590      C2591   1.412       .  A
C2591      C2592   1.400       .  A
C2591      H2603   1.078       .  S
C2592      H2604   1.083       .  S
C2593      H2605   1.084       .  S
C2593      C2594   1.354       .  D
C2594      H2606   1.081       .  S
C2594      C2595   1.498       .  S
C2595      C2596   1.407       .  A
C2595      C2600   1.410       .  A
C2596      C2597   1.400       .  A
C2596      H2607   1.083       .  S
C2597      C2598   1.404       .  A
C2597      H2608   1.083       .  S
C2598      C2599   1.409       .  A
C2599      C2600   1.405       .  A
C2599      H2609   1.083       .  S
C2600      H2610   1.081       .  S
C2611      C2612   1.406       .  A
C2611      C2616   1.407       .  A
C2612      C2613   1.400       .  A
C2612      H2625   1.082       .  S
C2613      C2614   1.405       .  A
C2613      H2626   1.083       .  S
C2614      C2617   1.494       .  S
C2614      C2615   1.409       .  A
C2615      C2616   1.403       .  A
C2615      H2627   1.081       .  S
C2616      H2628   1.083       .  S
C2617      H2629   1.083       .  S
C2617      C2618   1.351       .  D
C2618      H2630   1.085       .  S
C2618      C2619   1.499       .  S
C2619      C2620   1.406       .  A
C2619      C2624   1.411       .  A
C2620      C2621   1.401       .  A
C2620      H2631   1.083       .  S
C2621      C2622   1.404       .  A
C2621      H2632   1.083       .  S
C2622      C2623   1.406       .  A
C2623      C2624   1.402       .  A
C2623      H2633   1.083       .  S
C2624      H2634   1.079       .  S
C2635      C2636   1.406       .  A
C2635      C2640   1.411       .  A
C2636      C2637   1.409       .  A
C2636      H2649   1.082       .  S
C2637      C2638   1.411       .  A
C2637      H2650   1.083       .  S
C2638      C2641   1.516       .  S
C2638      C2639   1.412       .  A
C2639      C2640   1.408       .  A
C2639      H2651   1.079       .  S
C2640      H2652   1.082       .  S
C2641      H2653   1.083       .  S
C2641      C2642   1.360       .  D
C2642      H2654   1.082       .  S
C2642      C2643   1.512       .  S
C2643      C2644   1.407       .  A
C2643      C2648   1.413       .  A
C2644      C2645   1.403       .  A
C2644      H2655   1.083       .  S
C2645      C2646   1.410       .  A
C2645      H2656   1.081       .  S
C2646      C2647   1.412       .  A
C2647      C2648   1.413       .  A
C2647      H2657   1.081       .  S
C2648      H2658   1.080       .  S
C2659      C2660   1.406       .  A
C2659      C2664   1.408       .  A
C2660      C2661   1.403       .  A
C2660      H2673   1.082       .  S
C2661      C2662   1.406       .  A
C2661      H2674   1.084       .  S
C2662      C2665   1.493       .  S
C2662      C2663   1.407       .  A
C2663      C2664   1.398       .  A
C2663      H2675   1.080       .  S
C2664      H2676   1.082       .  S
C2665      H2677   1.085       .  S
C2665      C2666   1.352       .  D
C2666      H2678   1.085       .  S
C2666      C2667   1.490       .  S
C2667      C2668   1.405       .  A
C2667      C2672   1.408       .  A
C2668      C2669   1.399       .  A
C2668      H2679   1.084       .  S
C2669      C2670   1.405       .  A
C2669      H2680   1.083       .  S
C2670      C2671   1.407       .  A
C2671      C2672   1.401       .  A
C2671      H2681   1.083       .  S
C2672      H2682   1.081       .  S
C2683      C2684   1.409       .  A
C2683      C2688   1.415       .  A
C2684      C2685   1.399       .  A
C2684      H2697   1.083       .  S
C2685      C2686   1.405       .  A
C2685      H2698   1.083       .  S
C2686      C2689   1.510       .  S
C2686      C2687   1.413       .  A
C2687      C2688   1.418       .  A
C2687      H2699   1.081       .  S
C2688      H2700   1.079       .  S
C2689      H2701   1.083       .  S
C2689      C2690   1.359       .  D
C2690      H2702   1.084       .  S
C2690      C2691   1.515       .  S
C2691      C2692   1.411       .  A
C2691      C2696   1.410       .  A
C2692      C2693   1.412       .  A
C2692      H2703   1.083       .  S
C2693      C2694   1.411       .  A
C2693      H2704   1.079       .  S
C2694      C2695   1.412       .  A
C2695      C2696   1.403       .  A
C2695      H2705   1.083       .  S
C2696      H2706   1.080       .  S
C2707      C2708   1.407       .  A
C2707      C2712   1.412       .  A
C2708      C2709   1.402       .  A
C2708      H2721   1.079       .  S
C2709      C2710   1.405       .  A
C2709      H2722   1.083       .  S
C2710      C2713   1.498       .  S
C2710      C2711   1.408       .  A
C2711      C2712   1.406       .  A
C2711      H2723   1.082       .  S
C2712      H2724   1.082       .  S
C2713      H2725   1.085       .  S
C2713      C2714   1.355       .  D
C2714      H2726   1.085       .  S
C2714      C2715   1.502       .  S
C2715      C2716   1.410       .  A
C2715      C2720   1.406       .  A
C2716      C2717   1.410       .  A
C2716      H2727   1.083       .  S
C2717      C2718   1.406       .  A
C2717      H2728   1.082       .  S
C2718      C2719   1.411       .  A
C2719      C2720   1.399       .  A
C2719      H2729   1.082       .  S
C2720      H2730   1.081       .  S
C2731      C2732   1.402       .  A
C2731      C2736   1.407       .  A
C2732      C2733   1.402       .  A
C2732      H2745   1.080       .  S
C2733      C2734   1.407       .  A
C2733      H2746   1.083       .  S
C2734      C2737   1.497       .  S
C2734      C2735   1.409       .  A
C2735      C2736   1.402       .  A
C2735      H2747   1.081       .  S
C2736      H2748   1.083       .  S
C2737      H2749   1.085       .  S
C2737      C2738   1.353       .  D
C2738      H2750   1.084       .  S
C2738      C2739   1.495       .  S
C2739      C2740   1.406       .  A
C2739      C2744   1.408       .  A
C2740      C2741   1.402       .  A
C2740      H2751   1.083       .  S
C2741      C2742   1.405       .  A
C2741      H2752   1.083       .  S
C2742      C2743   1.406       .  A
C2743      C2744   1.401       .  A
C2743      H2753   1.083       .  S
C2744      H2754   1.081       .  S
C2755      C2756   1.412       .  A
C2755      C2760   1.411       .  A
C2756      C2757   1.407       .  A
C2756      H2769   1.077       .  S
C2757      C2758   1.407       .  A
C2757      H2770   1.083       .  S
C2758      C2761   1.509       .  S
C2758      C2759   1.410       .  A
C2759      C2760   1.405       .  A
C2759      H2771   1.080       .  S
C2760      H2772   1.083       .  S
C2761      H2773   1.084       .  S
C2761      C2762   1.355       .  D
C2762      H2774   1.083       .  S
C2762      C2763   1.505       .  S
C2763      C2764   1.403       .  A
C2763      C2768   1.413       .  A
C2764      C2765   1.397       .  A
C2764      H2775   1.083       .  S
C2765      C2766   1.410       .  A
C2765      H2776   1.083       .  S
C2766      C2767   1.413       .  A
C2767      C2768   1.414       .  A
C2767      H2777   1.079       .  S
C2768      H2778   1.081       .  S
C2779      C2780   1.404       .  A
C2779      C2784   1.406       .  A
C2780      C2781   1.401       .  A
C2780      H2793   1.083       .  S
C2781      C2782   1.406       .  A
C2781      H2794   1.083       .  S
C2782      C2785   1.495       .  S
C2782      C2783   1.410       .  A
C2783      C2784   1.401       .  A
C2783      H2795   1.081       .  S
C2784      H2796   1.083       .  S
C2785      H2797   1.082       .  S
C2785      C2786   1.351       .  D
C2786      H2798   1.084       .  S
C2786      C2787   1.497       .  S
C2787      C2788   1.404       .  A
C2787      C2792   1.410       .  A
C2788      C2789   1.398       .  A
C2788      H2799   1.083       .  S
C2789      C2790   1.408       .  A
C2789      H2800   1.081       .  S
C2790      C2791   1.407       .  A
C2791      C2792   1.404       .  A
C2791      H2801   1.079       .  S
C2792      H2802   1.079       .  S
C2803      C2804   1.406       .  A
C2803      C2808   1.406       .  A
C2804      C2805   1.403       .  A
C2804      H2817   1.083       .  S
C2805      C2806   1.406       .  A
C2805      H2818   1.083       .  S
C2806      C2809   1.495       .  S
C2806      C2807   1.408       .  A
C2807      C2808   1.399       .  A
C2807      H2819   1.081       .  S
C2808      H2820   1.083       .  S
C2809      H2821   1.083       .  S
C2809      C2810   1.352       .  D
C2810      H2822   1.085       .  S
C2810      C2811   1.495       .  S
C2811      C2812   1.405       .  A
C2811      C2816   1.411       .  A
C2812      C2813   1.396       .  A
C2812      H2823   1.084       .  S
C2813      C2814   1.403       .  A
C2813      H2824   1.083       .  S
C2814      C2815   1.405       .  A
C2815      C2816   1.405       .  A
C2815      H2825   1.083       .  S
C2816      H2826   1.080       .  S
C2827      C2828   1.403       .  A
C2827      C2832   1.408       .  A
C2828      C2829   1.401       .  A
C2828      H2841   1.078       .  S
C2829      C2830   1.407       .  A
C2829      H2842   1.083       .  S
C2830      C2833   1.498       .  S
C2830      C2831   1.409       .  A
C2831      C2832   1.401       .  A
C2831      H2843   1.079       .  S
C2832      H2844   1.082       .  S
C2833      H2845   1.085       .  S
C2833      C2834   1.353       .  D
C2834      H2846   1.082       .  S
C2834      C2835   1.494       .  S
C2835      C2836   1.407       .  A
C2835      C2840   1.407       .  A
C2836      C2837   1.403       .  A
C2836      H2847   1.083       .  S
C2837      C2838   1.404       .  A
C2837      H2848   1.083       .  S
C2838      C2839   1.407       .  A
C2839      C2840   1.399       .  A
C2839      H2849   1.083       .  S
C2840      H2850   1.081       .  S
C2851      C2852   1.407       .  A
C2851      C2856   1.410       .  A
C2852      C2853   1.403       .  A
C2852      H2865   1.082       .  S
C2853      C2854   1.406       .  A
C2853      H2866   1.083   1_556  S
C2854      C2857   1.502       .  S
C2854      C2855   1.410       .  A
C2855      C2856   1.409       .  A
C2855      H2867   1.081       .  S
C2856      H2868   1.082       .  S
C2857      H2869   1.085   1_556  S
C2857      C2858   1.355       .  D
C2858      H2870   1.085       .  S
C2858      C2859   1.504   1_656  S
C2859      C2860   1.408   1_554  A
C2859      C2864   1.406       .  A
C2860      C2861   1.409   1_556  A
C2860      H2871   1.083       .  S
C2861      C2862   1.411       .  A
C2861      H2872   1.079       .  S
C2862      C2863   1.412       .  A
C2863      C2864   1.401       .  A
C2863      H2873   1.083       .  S
C2864      H2874   1.082       .  S
C2875      C2876   1.406       .  A
C2875      C2880   1.409       .  A
C2876      C2877   1.407       .  A
C2876      H2889   1.083       .  S
C2877      C2878   1.408       .  A
C2877      H2890   1.083       .  S
C2878      C2881   1.504   1_455  S
C2878      C2879   1.409       .  A
C2879      C2880   1.405       .  A
C2879      H2891   1.082       .  S
C2880      H2892   1.083       .  S
C2881      H2893   1.085       .  S
C2881      C2882   1.352   1_554  D
C2882      H2894   1.086       .  S
C2882      C2883   1.501       .  S
C2883      C2884   1.400       .  A
C2883      C2888   1.413       .  A
C2884      C2885   1.396       .  A
C2884      H2895   1.084       .  S
C2885      C2886   1.412       .  A
C2885      H2896   1.084       .  S
C2886      C2887   1.411       .  A
C2887      C2888   1.416       .  A
C2887      H2897   1.080       .  S
C2888      H2898   1.082   1_556  S
C2899      C2900   1.405       .  A
C2899      C2904   1.406       .  A
C2900      C2901   1.406       .  A
C2900      H2913   1.083       .  S
C2901      C2902   1.408       .  A
C2901      H2914   1.083       .  S
C2902      C2905   1.499       .  S
C2902      C2903   1.409       .  A
C2903      C2904   1.400       .  A
C2903      H2915   1.081       .  S
C2904      H2916   1.083       .  S
C2905      H2917   1.085       .  S
C2905      C2906   1.353       .  D
C2906      H2918   1.085       .  S
C2906      C2907   1.497       .  S
C2907      C2908   1.405       .  A
C2907      C2912   1.409       .  A
C2908      C2909   1.401       .  A
C2908      H2919   1.083       .  S
C2909      C2910   1.408       .  A
C2909      H2920   1.082       .  S
C2910      C2911   1.408       .  A
C2911      C2912   1.405       .  A
C2911      H2921   1.078       .  S
C2912      H2922   1.081       .  S
C2923      C2924   1.405       .  A
C2923      C2928   1.404       .  A
C2924      C2925   1.392       .  A
C2924      H2937   1.083       .  S
C2925      C2926   1.401       .  A
C2925      H2938   1.084       .  S
C2926      C2929   1.486       .  S
C2926      C2927   1.411       .  A
C2927      C2928   1.405       .  A
C2927      H2939   1.081       .  S
C2928      H2940   1.083       .  S
C2929      H2941   1.086       .  S
C2929      C2930   1.348       .  D
C2930      H2942   1.085       .  S
C2930      C2931   1.489       .  S
C2931      C2932   1.403       .  A
C2931      C2936   1.408       .  A
C2932      C2933   1.400       .  A
C2932      H2943   1.083       .  S
C2933      C2934   1.406       .  A
C2933      H2944   1.083       .  S
C2934      C2935   1.404       .  A
C2935      C2936   1.397       .  A
C2935      H2945   1.083       .  S
C2936      H2946   1.082       .  S
C2947      C2948   1.406       .  A
C2947      C2952   1.409       .  A
C2948      C2949   1.402       .  A
C2948      H2961   1.083       .  S
C2949      C2950   1.407       .  A
C2949      H2962   1.083   1_554  S
C2950      C2953   1.506       .  S
C2950      C2951   1.412       .  A
C2951      C2952   1.413       .  A
C2951      H2963   1.081       .  S
C2952      H2964   1.083       .  S
C2953      H2965   1.085   1_554  S
C2953      C2954   1.356       .  D
C2954      H2966   1.085   1_565  S
C2954      C2955   1.509   1_564  S
C2955      C2956   1.408       .  A
C2955      C2960   1.408       .  A
C2956      C2957   1.411       .  A
C2956      H2967   1.083   1_556  S
C2957      C2958   1.413       .  A
C2957      H2968   1.078       .  S
C2958      C2959   1.412       .  A
C2959      C2960   1.404       .  A
C2959      H2969   1.083       .  S
C2960      H2970   1.081       .  S
C2971      C2972   1.407       .  A
C2971      C2976   1.411       .  A
C2972      C2973   1.406       .  A
C2972      H2985   1.082       .  S
C2973      C2974   1.409       .  A
C2973      H2986   1.083       .  S
C2974      C2977   1.515       .  S
C2974      C2975   1.413       .  A
C2975      C2976   1.413       .  A
C2975      H2987   1.080       .  S
C2976      H2988   1.082       .  S
C2977      H2989   1.083       .  S
C2977      C2978   1.361       .  D
C2978      H2990   1.084       .  S
C2978      C2979   1.516       .  S
C2979      C2980   1.409       .  A
C2979      C2984   1.411       .  A
C2980      C2981   1.409       .  A
C2980      H2991   1.083       .  S
C2981      C2982   1.410       .  A
C2981      H2992   1.081       .  S
C2982      C2983   1.413       .  A
C2983      C2984   1.409       .  A
C2983      H2993   1.081       .  S
C2984      H2994   1.080       .  S
C2995      C2996   1.406       .  A
C2995      C3000   1.406       .  A
C2996      C2997   1.401       .  A
C2996      H3009   1.083       .  S
C2997      C2998   1.404       .  A
C2997      H3010   1.083       .  S
C2998      C3001   1.492       .  S
C2998      C2999   1.408       .  A
C2999      C3000   1.404       .  A
C2999      H3011   1.082       .  S
C3000      H3012   1.083       .  S
C3001      H3013   1.086       .  S
C3001      C3002   1.350       .  D
C3002      H3014   1.086       .  S
C3002      C3003   1.494       .  S
C3003      C3004   1.407       .  A
C3003      C3008   1.407       .  A
C3004      C3005   1.405       .  A
C3004      H3015   1.083       .  S
C3005      C3006   1.405       .  A
C3005      H3016   1.083       .  S
C3006      C3007   1.406       .  A
C3007      C3008   1.400       .  A
C3007      H3017   1.083       .  S
C3008      H3018   1.082       .  S
C3019      C3020   1.410       .  A
C3019      C3024   1.410       .  A
C3020      C3021   1.401       .  A
C3020      H3033   1.081       .  S
C3021      C3022   1.403       .  A
C3021      H3034   1.083       .  S
C3022      C3025   1.495       .  S
C3022      C3023   1.407       .  A
C3023      C3024   1.406       .  A
C3023      H3035   1.082       .  S
C3024      H3036   1.078       .  S
C3025      H3037   1.086       .  S
C3025      C3026   1.351       .  D
C3026      H3038   1.086       .  S
C3026      C3027   1.498       .  S
C3027      C3028   1.406       .  A
C3027      C3032   1.408       .  A
C3028      C3029   1.405       .  A
C3028      H3039   1.083       .  S
C3029      C3030   1.406       .  A
C3029      H3040   1.082       .  S
C3030      C3031   1.409       .  A
C3031      C3032   1.403       .  A
C3031      H3041   1.083       .  S
C3032      H3042   1.082       .  S
C3043      C3044   1.404       .  A
C3043      C3048   1.406       .  A
C3044      C3045   1.403       .  A
C3044      H3057   1.083       .  S
C3045      C3046   1.408       .  A
C3045      H3058   1.083       .  S
C3046      C3049   1.497       .  S
C3046      C3047   1.408       .  A
C3047      C3048   1.399       .  A
C3047      H3059   1.080       .  S
C3048      H3060   1.083       .  S
C3049      H3061   1.084       .  S
C3049      C3050   1.353       .  D
C3050      H3062   1.084       .  S
C3050      C3051   1.497       .  S
C3051      C3052   1.407       .  A
C3051      C3056   1.408       .  A
C3052      C3053   1.402       .  A
C3052      H3063   1.083       .  S
C3053      C3054   1.404       .  A
C3053      H3064   1.079       .  S
C3054      C3055   1.408       .  A
C3055      C3056   1.401       .  A
C3055      H3065   1.082       .  S
C3056      H3066   1.080       .  S
C3067      C3068   1.413       .  A
C3067      C3072   1.413       .  A
C3068      C3069   1.406   1_554  A
C3068      H3081   1.077       .  S
C3069      C3070   1.406   1_556  A
C3069      H3082   1.083       .  S
C3070      C3073   1.506   1_554  S
C3070      C3071   1.408       .  A
C3071      C3072   1.407       .  A
C3071      H3083   1.081       .  S
C3072      H3084   1.083       .  S
C3073      H3085   1.085       .  S
C3073      C3074   1.355       .  D
C3074      H3086   1.085       .  S
C3074      C3075   1.503   1_565  S
C3075      C3076   1.406       .  A
C3075      C3080   1.411       .  A
C3076      C3077   1.403       .  A
C3076      H3087   1.083       .  S
C3077      C3078   1.405       .  A
C3077      H3088   1.083       .  S
C3078      C3079   1.409       .  A
C3079      C3080   1.410       .  A
C3079      H3089   1.083       .  S
C3080      H3090   1.082       .  S
C3091      C3092   1.409       .  A
C3091      C3096   1.414       .  A
C3092      C3093   1.397       .  A
C3092      H3105   1.083       .  S
C3093      C3094   1.403       .  A
C3093      H3106   1.084       .  S
C3094      C3097   1.506       .  S
C3094      C3095   1.413       .  A
C3095      C3096   1.416       .  A
C3095      H3107   1.081       .  S
C3096      H3108   1.080       .  S
C3097      H3109   1.082       .  S
C3097      C3098   1.356       .  D
C3098      H3110   1.085       .  S
C3098      C3099   1.514       .  S
C3099      C3100   1.409       .  A
C3099      C3104   1.411       .  A
C3100      C3101   1.409       .  A
C3100      H3111   1.083       .  S
C3101      C3102   1.412       .  A
C3101      H3112   1.078       .  S
C3102      C3103   1.411       .  A
C3103      C3104   1.404       .  A
C3103      H3113   1.083       .  S
C3104      H3114   1.079       .  S
C3115      C3116   1.404       .  A
C3115      C3120   1.407       .  A
C3116      C3117   1.402       .  A
C3116      H3129   1.083       .  S
C3117      C3118   1.407       .  A
C3117      H3130   1.083       .  S
C3118      C3121   1.496       .  S
C3118      C3119   1.409       .  A
C3119      C3120   1.400       .  A
C3119      H3131   1.080       .  S
C3120      H3132   1.083       .  S
C3121      H3133   1.085       .  S
C3121      C3122   1.352       .  D
C3122      H3134   1.083       .  S
C3122      C3123   1.492       .  S
C3123      C3124   1.406       .  A
C3123      C3128   1.408       .  A
C3124      C3125   1.402       .  A
C3124      H3135   1.083       .  S
C3125      C3126   1.404       .  A
C3125      H3136   1.083       .  S
C3126      C3127   1.406       .  A
C3127      C3128   1.400       .  A
C3127      H3137   1.083       .  S
C3128      H3138   1.082       .  S
C3139      C3140   1.407       .  A
C3139      C3144   1.414       .  A
C3140      C3141   1.399       .  A
C3140      H3153   1.077       .  S
C3141      C3142   1.405       .  A
C3141      H3154   1.083       .  S
C3142      C3145   1.504       .  S
C3142      C3143   1.410       .  A
C3143      C3144   1.412       .  A
C3143      H3155   1.081       .  S
C3144      H3156   1.081       .  S
C3145      H3157   1.085       .  S
C3145      C3146   1.356   1_554  D
C3146      H3158   1.084       .  S
C3146      C3147   1.505       .  S
C3147      C3148   1.409       .  A
C3147      C3152   1.408       .  A
C3148      C3149   1.410       .  A
C3148      H3159   1.083       .  S
C3149      C3150   1.408       .  A
C3149      H3160   1.083       .  S
C3150      C3151   1.405       .  A
C3151      C3152   1.400       .  A
C3151      H3161   1.079       .  S
C3152      H3162   1.081       .  S
C3163      C3164   1.412       .  A
C3163      C3168   1.412       .  A
C3164      C3165   1.406       .  A
C3164      H3177   1.077       .  S
C3165      C3166   1.406       .  A
C3165      H3178   1.084       .  S
C3166      C3169   1.505       .  S
C3166      C3167   1.408       .  A
C3167      C3168   1.405       .  A
C3167      H3179   1.081       .  S
C3168      H3180   1.083       .  S
C3169      H3181   1.084       .  S
C3169      C3170   1.356       .  D
C3170      H3182   1.085       .  S
C3170      C3171   1.506       .  S
C3171      C3172   1.408       .  A
C3171      C3176   1.411       .  A
C3172      C3173   1.404       .  A
C3172      H3183   1.083       .  S
C3173      C3174   1.406       .  A
C3173      H3184   1.082       .  S
C3174      C3175   1.410       .  A
C3175      C3176   1.407       .  A
C3175      H3185   1.082       .  S
C3176      H3186   1.080       .  S
C3187      C3188   1.403       .  A
C3187      C3192   1.407       .  A
C3188      C3189   1.406       .  A
C3188      H3201   1.083       .  S
C3189      C3190   1.409       .  A
C3189      H3202   1.083       .  S
C3190      C3193   1.500       .  S
C3190      C3191   1.408       .  A
C3191      C3192   1.398       .  A
C3191      H3203   1.080       .  S
C3192      H3204   1.083       .  S
C3193      H3205   1.083       .  S
C3193      C3194   1.354       .  D
C3194      H3206   1.084       .  S
C3194      C3195   1.499       .  S
C3195      C3196   1.404       .  A
C3195      C3200   1.408       .  A
C3196      C3197   1.399       .  A
C3196      H3207   1.084       .  S
C3197      C3198   1.408       .  A
C3197      H3208   1.076       .  S
C3198      C3199   1.413       .  A
C3199      C3200   1.405       .  A
C3199      H3209   1.080       .  S
C3200      H3210   1.080       .  S
C3211      C3212   1.406       .  A
C3211      C3216   1.405       .  A
C3212      C3213   1.406       .  A
C3212      H3225   1.083       .  S
C3213      C3214   1.408       .  A
C3213      H3226   1.083       .  S
C3214      C3217   1.495       .  S
C3214      C3215   1.407       .  A
C3215      C3216   1.395       .  A
C3215      H3227   1.082       .  S
C3216      H3228   1.083       .  S
C3217      H3229   1.084       .  S
C3217      C3218   1.352       .  D
C3218      H3230   1.085       .  S
C3218      C3219   1.495       .  S
C3219      C3220   1.404       .  A
C3219      C3224   1.410       .  A
C3220      C3221   1.396       .  A
C3220      H3231   1.083       .  S
C3221      C3222   1.404       .  A
C3221      H3232   1.082       .  S
C3222      C3223   1.409       .  A
C3223      C3224   1.407       .  A
C3223      H3233   1.082       .  S
C3224      H3234   1.081       .  S
C3235      C3236   1.412       .  A
C3235      C3240   1.411       .  A
C3236      C3237   1.407       .  A
C3236      H3249   1.078       .  S
C3237      C3238   1.407       .  A
C3237      H3250   1.083   1_556  S
C3238      C3241   1.506   1_556  S
C3238      C3239   1.408       .  A
C3239      C3240   1.404       .  A
C3239      H3251   1.080       .  S
C3240      H3252   1.083       .  S
C3241      H3253   1.084       .  S
C3241      C3242   1.356   1_554  D
C3242      H3254   1.084       .  S
C3242      C3243   1.505   1_556  S
C3243      C3244   1.408       .  A
C3243      C3248   1.410       .  A
C3244      C3245   1.405       .  A
C3244      H3255   1.083   1_554  S
C3245      C3246   1.405       .  A
C3245      H3256   1.082       .  S
C3246      C3247   1.409       .  A
C3247      C3248   1.407       .  A
C3247      H3257   1.083       .  S
C3248      H3258   1.081       .  S
