geometry optimzed in LAMMPS
_audit_creation_date              2020-11-30 
_audit_creation_method            'lammps2cif' 
_symmetry_space_group_name_H-M    'P1' 
_symmetry_Int_Tables_number       1 
_symmetry_cell_setting            triclinic 
loop_ 
_symmetry_equiv_pos_as_xyz 
  x,y,z 
_cell_length_a                    39.77020793 
_cell_length_b                    39.77027832108704 
_cell_length_c                    35.1269097390999 
_cell_angle_alpha                 89.70224477986515 
_cell_angle_beta                  90.39415581156408 
_cell_angle_gamma                 121.25014936887133 
loop_ 
_atom_site_label 
_atom_site_type_symbol 
_atom_site_fract_x 
_atom_site_fract_y 
_atom_site_fract_z 
_atom_site_charge 
C1          C  0.52339056  0.32764669  0.29040642     0.85800
C2          C  0.53071425  0.29337676  0.28677453    -0.54500
C3          C  0.54867559  0.29391302  0.25335295     0.08700
C4          C  0.55691905  0.32819311  0.22655424     0.19600
C5          C  0.56426354  0.36478475  0.28425960    -0.55200
C6          C  0.58201278  0.36488936  0.25123918     0.08800
C7          C  0.49945637  0.32479408  0.25516756    -0.54700
C8          C  0.51668016  0.32519058  0.22171375     0.09400
H9          H  0.52495661  0.27253513  0.30957349     0.13900
H10         H  0.57122365  0.32847875  0.19938917    -0.00400
H11         H  0.57931499  0.38761241  0.30558667     0.14200
H12         H  0.47168560  0.32386208  0.25653744     0.14000
C13         C  0.30711566  0.54529112  0.21833617     0.85800
C14         C  0.27350401  0.55339519  0.22310024    -0.54500
C15         C  0.27609775  0.57303679  0.25603365     0.08700
C16         C  0.31156441  0.58188607  0.28147910     0.19600
C17         C  0.34485794  0.58624116  0.22228928    -0.55200
C18         C  0.34688617  0.60553073  0.25500859     0.08800
C19         C  0.30595023  0.52288498  0.25417668    -0.54700
C20         C  0.30849761  0.54172388  0.28727359     0.09400
H21         H  0.25168664  0.54709663  0.20110913     0.13900
H22         H  0.31348831  0.59749094  0.30830979    -0.00400
H23         H  0.36641188  0.60018838  0.19975729     0.14200
H24         H  0.30463155  0.49490141  0.25339393     0.14000
C25         C  0.76332903  0.45934500  0.28807033     0.85800
C26         C  0.72062580  0.45000992  0.28501651    -0.54500
C27         C  0.70180055  0.43044367  0.25221367     0.08700
C28         C  0.72756137  0.42263772  0.22544647     0.19600
C29         C  0.75967498  0.41903464  0.28303784    -0.55200
C30         C  0.74061937  0.39969314  0.25064647     0.08800
C31         C  0.78333852  0.48234626  0.25192913    -0.54700
C32         C  0.76505263  0.46344828  0.21910974     0.09400
H33         H  0.70598035  0.45596580  0.30765764     0.13900
H34         H  0.71235389  0.40694296  0.19884462    -0.00400
H35         H  0.76851898  0.40547810  0.30466858     0.14200
H36         H  0.81060390  0.51076247  0.25225643     0.14000
C37         C  0.65005986  0.22013113  0.29164595     0.85800
C38         C  0.68467335  0.26278898  0.28767514    -0.54500
C39         C  0.68405388  0.28035300  0.25417617     0.08700
C40         C  0.64925747  0.25350323  0.22770678     0.19600
C41         C  0.61318341  0.22308554  0.28579131    -0.55200
C42         C  0.61294475  0.24091327  0.25268867     0.08800
C43         C  0.65214988  0.19905169  0.25642159    -0.54700
C44         C  0.65163383  0.21609671  0.22292547     0.09400
H45         H  0.70608399  0.27831663  0.31014427     0.13900
H46         H  0.64891063  0.26774425  0.20052458    -0.00400
H47         H  0.59064996  0.21463303  0.30729265     0.14200
H48         H  0.65295112  0.17216231  0.25784269     0.14000
C49         C  0.20060217  0.67399924  0.21851541     0.85800
C50         C  0.24282396  0.70956753  0.22165149    -0.54500
C51         C  0.26167684  0.70986257  0.25456493     0.08700
C52         C  0.23640619  0.67495662  0.28141191     0.19600
C53         C  0.20517730  0.63803221  0.22371260    -0.55200
C54         C  0.22426154  0.63871058  0.25633128     0.08800
C55         C  0.18002283  0.67546261  0.25430657    -0.54700
C56         C  0.19836532  0.67593487  0.28728264     0.09400
H57         H  0.25725809  0.73085264  0.19890141     0.13900
H58         H  0.25169555  0.67539241  0.30817024    -0.00400
H59         H  0.19658900  0.61539396  0.20224514     0.14200
H60         H  0.15259771  0.67528832  0.25365231     0.14000
C61         C  0.43897522  0.78608194  0.21513258     0.85800
C62         C  0.42917337  0.74336289  0.21841630    -0.54500
C63         C  0.41038278  0.72522571  0.25152126     0.08700
C64         C  0.40351405  0.75159377  0.27840895     0.19600
C65         C  0.39916592  0.78330551  0.22091145    -0.55200
C66         C  0.38054910  0.76500090  0.25373236     0.08800
C67         C  0.46304704  0.80654319  0.25086393    -0.54700
C68         C  0.44461612  0.78879316  0.28404851     0.09400
H69         H  0.43459441  0.72825986  0.19580256     0.13900
H70         H  0.38828168  0.73681383  0.30526710    -0.00400
H71         H  0.38548404  0.79242506  0.19967505     0.14200
H72         H  0.49166192  0.83353368  0.25001664     0.14000
C73         C  0.65374324  0.46185331  0.71418377     0.85800
C74         C  0.68783676  0.45441890  0.71897624    -0.54500
C75         C  0.68580350  0.43466443  0.75178133     0.08700
C76         C  0.65008100  0.42457846  0.77693123     0.19600
C77         C  0.61635600  0.42059399  0.71763000    -0.55200
C78         C  0.61468011  0.40095349  0.75016175     0.08800
C79         C  0.65462541  0.48358982  0.75028297    -0.54700
C80         C  0.65251027  0.46431571  0.78321331     0.09400
H81         H  0.71010962  0.46198117  0.69740091     0.13900
H82         H  0.64853544  0.40862820  0.80355557    -0.00400
H83         H  0.59451739  0.40694017  0.69511844     0.14200
H84         H  0.65567964  0.51144891  0.74977821     0.14000
C85         C  0.52256335  0.21905099  0.71612243     0.85800
C86         C  0.52998445  0.26107332  0.71792106    -0.54500
C87         C  0.54930506  0.28100429  0.75036111     0.08700
C88         C  0.55872590  0.25681230  0.77817440     0.19600
C89         C  0.56365987  0.22466299  0.72173460    -0.55200
C90         C  0.58272373  0.24478014  0.75376835     0.08800
C91         C  0.50012474  0.19901323  0.75257369    -0.54700
C92         C  0.51880664  0.21839193  0.78516729     0.09400
H93         H  0.52325384  0.27466724  0.69456396     0.13900
H94         H  0.57424991  0.27291949  0.80450612    -0.00400
H95         H  0.57788117  0.21634368  0.70064244     0.14200
H96         H  0.47233937  0.17109129  0.75264919     0.14000
C97         C  0.19293835  0.53957411  0.79062181     0.85800
C98         C  0.23561255  0.54894032  0.78922422    -0.54500
C99         C  0.25565400  0.56982770  0.75764769     0.08700
C100        C  0.23100518  0.57892898  0.73005847     0.19600
C101        C  0.19672512  0.58009446  0.78657360    -0.55200
C102        C  0.21707472  0.60087250  0.75523826     0.08800
C103        C  0.17416882  0.51812785  0.75335831    -0.54700
C104        C  0.19367547  0.53848690  0.72147048     0.09400
H105        H  0.24932691  0.54178892  0.81216031     0.13900
H106        H  0.24731568  0.59578118  0.70436796    -0.00400
H107        H  0.18706523  0.59265369  0.80818332     0.14200
H108        H  0.14700737  0.48966517  0.75227905     0.14000
C109        C  0.43648841  0.67144704  0.71135233     0.85800
C110        C  0.39505980  0.63434816  0.71535394    -0.54500
C111        C  0.37532916  0.63435056  0.74697126     0.08700
C112        C  0.39893416  0.67082213  0.77221979     0.19600
C113        C  0.42925684  0.70585657  0.71305814    -0.55200
C114        C  0.40925560  0.70529313  0.74486082     0.08800
C115        C  0.45784224  0.67381067  0.74844772    -0.54700
C116        C  0.43839752  0.67323176  0.78041975     0.09400
H117        H  0.38150658  0.61149399  0.69386051     0.13900
H118        H  0.38286777  0.67056527  0.79809102    -0.00400
H119        H  0.43698548  0.72708653  0.69018969     0.14200
H120        H  0.48550407  0.67446981  0.74934554     0.14000
C121        C  0.76447703  0.33816785  0.71719144     0.85800
C122        C  0.72118444  0.30435928  0.71884622    -0.54500
C123        C  0.70247084  0.30401625  0.75162022     0.08700
C124        C  0.72873705  0.33709736  0.77968663     0.19600
C125        C  0.76267721  0.37557177  0.72356816    -0.55200
C126        C  0.74339095  0.37475024  0.75584999     0.08800
C127        C  0.78334164  0.33352832  0.75317246    -0.54700
C128        C  0.76494756  0.33286522  0.78593796     0.09400
H129        H  0.70628861  0.28399441  0.69553744     0.13900
H130        H  0.71353266  0.33666476  0.80627665    -0.00400
H131        H  0.77227728  0.39887704  0.70253207     0.14200
H132        H  0.80962773  0.33161322  0.75279237     0.14000
In133      In  0.64068603  0.15467879  0.38834476     1.36900
C134        C  0.69260144  0.20297203  0.43945341     0.76900
O135        O  0.67531371  0.19180014  0.33749583    -0.61600
O136        O  0.61971081  0.18451513  0.34980184    -0.52500
C137        C  0.62417321  0.08548658  0.36044494     0.69500
O138        O  0.65537286  0.10727983  0.37908337    -0.47400
C139        C  0.58389503  0.12742471  0.43958787     0.74200
O140        O  0.69670076  0.17712820  0.42287899    -0.59200
O141        O  0.58311476  0.14474146  0.40967489    -0.49300
O142        O  0.66489552  0.20643195  0.42662866    -0.55600
C143        C  0.64887680  0.19891595  0.32783803     0.84400
O144        O  0.60394174  0.10084097  0.35350202    -0.57500
O145        O  0.61209500  0.12161869  0.44165736    -0.60800
In146      In  0.82899989  0.34531464  0.62076137     1.36900
C147        C  0.77895847  0.29049739  0.57282036     0.76900
O148        O  0.79262560  0.31246126  0.67248833    -0.61600
O149        O  0.80180838  0.36879738  0.65969754    -0.52500
C150        C  0.89940194  0.36253967  0.64634990     0.69500
O151        O  0.87573739  0.32966600  0.63134360    -0.47400
C152        C  0.85351238  0.39914104  0.56622155     0.74200
O153        O  0.80622259  0.28811395  0.58891621    -0.59200
O154        O  0.83840485  0.40198853  0.59661009    -0.49300
O155        O  0.77521744  0.31827889  0.58454631    -0.55600
C156        C  0.78650349  0.33953606  0.68175686     0.84400
O157        O  0.88546167  0.38430285  0.65102142    -0.57500
O158        O  0.85819840  0.37021782  0.56500733    -0.60800
In159      In  0.83200138  0.51843529  0.38352847     1.36900
C160        C  0.78671723  0.52588452  0.43365006     0.76900
O161        O  0.79505717  0.51534211  0.33217364    -0.61600
O162        O  0.79958824  0.46592199  0.34619313    -0.52500
C163        C  0.90266439  0.57015036  0.35564702     0.69500
O164        O  0.88177126  0.58105274  0.37213866    -0.47400
C165        C  0.85515024  0.48717920  0.43691840     0.74200
O166        O  0.81480684  0.55564888  0.41745392    -0.59200
O167        O  0.83854258  0.46917249  0.40657174    -0.49300
O168        O  0.77965945  0.49335633  0.42068039    -0.55600
C169        C  0.78598429  0.48071346  0.32361912     0.84400
O170        O  0.88582590  0.53358244  0.35073958    -0.57500
O171        O  0.86216902  0.52183034  0.43851626    -0.60800
In172      In  0.65184371  0.52212443  0.61700498     1.36900
C173        C  0.70548129  0.52704860  0.56900691     0.76900
O174        O  0.68240920  0.51815180  0.67035608    -0.61600
O175        O  0.62712831  0.46913511  0.65441758    -0.52500
C176        C  0.63850330  0.57695514  0.64311710     0.69500
O177        O  0.66966620  0.58588526  0.62555706    -0.47400
C178        C  0.59651880  0.49074169  0.56345786     0.74200
O179        O  0.70934252  0.55734985  0.58490183    -0.59200
O180        O  0.59296347  0.47452526  0.59533087    -0.49300
O181        O  0.67739871  0.49502240  0.58151149    -0.55600
C182        C  0.65486126  0.48361968  0.67830668     0.84400
O183        O  0.61621928  0.54074095  0.64928721    -0.57500
O184        O  0.62690117  0.52431806  0.56020436    -0.60800
In185      In  0.46625292  0.15032034  0.62024187     1.36900
C186        C  0.45967562  0.19661157  0.57007911     0.76900
O187        O  0.46700900  0.18528415  0.67163865    -0.61600
O188        O  0.51830836  0.18415370  0.65802921    -0.52500
C189        C  0.41838588  0.07945435  0.64923736     0.69500
O190        O  0.40514859  0.09935767  0.63428159    -0.47400
C191        C  0.49550235  0.12633835  0.56663801     0.74200
O192        O  0.42962631  0.16905600  0.58655982    -0.59200
O193        O  0.51427965  0.14273993  0.59681989    -0.49300
O194        O  0.49203545  0.20223192  0.58244989    -0.55600
C195        C  0.50204287  0.19594558  0.68056176     0.84400
O196        O  0.45528084  0.09725525  0.65166780    -0.57500
O197        O  0.46116260  0.12036190  0.56507154    -0.60800
In198      In  0.46921837  0.33775738  0.38744352     1.36900
C199        C  0.46072720  0.28311711  0.43681800     0.76900
O200        O  0.46914624  0.30331101  0.33589218    -0.61600
O201        O  0.52052830  0.35785447  0.34909281    -0.52500
C202        C  0.41773744  0.35585592  0.36016014     0.69500
O203        O  0.40688207  0.32379430  0.37721060    -0.47400
C204        C  0.50396517  0.39437974  0.43922567     0.74200
O205        O  0.43120934  0.28177188  0.42139743    -0.59200
O206        O  0.52031702  0.39525931  0.40828021    -0.49300
O207        O  0.49338286  0.30956750  0.42381548    -0.55600
C208        C  0.50391984  0.32908765  0.32663089     0.84400
O209        O  0.45424515  0.37669138  0.35482056    -0.57500
O210        O  0.46932234  0.36569517  0.44259220    -0.60800
In211      In  0.49417496  0.84590179  0.38527259     1.36900
C212        C  0.50458133  0.79850252  0.43025325     0.76900
O213        O  0.49580479  0.86953626  0.44303149    -0.61600
O214        O  0.44427625  0.85008861  0.40956234    -0.52500
C215        C  0.54315788  0.91872164  0.36092483     0.69500
O216        O  0.55547765  0.89740636  0.37424026    -0.47400
C217        C  0.46194457  0.80660485  0.32122569     0.74200
O218        O  0.53347031  0.83039442  0.41812404    -0.59200
O219        O  0.44164569  0.80727555  0.34828270    -0.49300
O220        O  0.47208642  0.78895828  0.41493139    -0.55600
C221        C  0.46143921  0.86328674  0.44116376     0.84400
O222        O  0.50623159  0.90187216  0.35845481    -0.57500
O223        O  0.49853783  0.82441688  0.32763637    -0.60800
In224      In  0.13818852  0.66667510  0.38571650     1.36900
C225        C  0.18574463  0.72023198  0.43581614     0.76900
O226        O  0.10751065  0.64021394  0.44019407    -0.61600
O227        O  0.12535985  0.60778977  0.40676419    -0.52500
C228        C  0.06870410  0.64932059  0.35830161     0.69500
O229        O  0.09200150  0.68220530  0.37362452    -0.47400
C230        C  0.18047745  0.67525697  0.32406879     0.74200
O231        O  0.15874404  0.72276392  0.41936097    -0.59200
O232        O  0.17702772  0.65263284  0.35096497    -0.49300
O233        O  0.19092655  0.69381441  0.42283301    -0.55600
C234        C  0.11068451  0.61044262  0.43759824     0.84400
O235        O  0.08226201  0.62697410  0.35508760    -0.57500
O236        O  0.16430515  0.69498607  0.32971737    -0.60800
In237      In  0.32084124  0.84264311  0.62418817     1.36900
C238        C  0.26456642  0.79712673  0.57552809     0.76900
O239        O  0.34640303  0.86881106  0.56779521    -0.61600
O240        O  0.37722527  0.84948583  0.60229978    -0.52500
C241        C  0.34191765  0.91353081  0.64972562     0.69500
O242        O  0.30757423  0.88992032  0.63746345    -0.47400
C243        C  0.31076112  0.80183343  0.68780997     0.74200
O244        O  0.26743923  0.82813743  0.58835879    -0.59200
O245        O  0.33317433  0.80377158  0.66158219    -0.49300
O246        O  0.28626047  0.78707557  0.59201327    -0.55600
C247        C  0.37463495  0.86315265  0.57056406     0.84400
O248        O  0.36436308  0.89990284  0.65051165    -0.57500
O249        O  0.29215363  0.81895844  0.68061701    -0.60800
In250      In  0.32258057  0.49254137  0.38581355     1.36900
C251        C  0.27037364  0.48457395  0.43772311     0.76900
O252        O  0.35113667  0.49048617  0.43946670    -0.61600
O253        O  0.38188981  0.54189607  0.40524180    -0.52500
C254        C  0.33906419  0.44026598  0.35913895     0.69500
O255        O  0.30600351  0.43001159  0.37351582    -0.47400
C256        C  0.31138865  0.52505420  0.32398332     0.74200
O257        O  0.26783399  0.45492576  0.42170075    -0.59200
O258        O  0.33568262  0.54537375  0.34967688    -0.49300
O259        O  0.29626484  0.51704261  0.42388110    -0.55600
C260        C  0.38045722  0.52477774  0.43616857     0.84400
O261        O  0.36214197  0.47695770  0.35623220    -0.57500
O262        O  0.29174835  0.48857700  0.33076567    -0.60800
In263      In  0.49907363  0.66726101  0.61833193     1.36900
C264        C  0.50355757  0.71895432  0.56808979     0.76900
O265        O  0.50411468  0.64433969  0.56221157    -0.61600
O266        O  0.45350785  0.60801482  0.59556152    -0.52500
C267        C  0.55498706  0.65556692  0.64495819     0.69500
O268        O  0.56294944  0.68678369  0.62778556    -0.47400
C269        C  0.45893517  0.67119054  0.67699195     0.74200
O270        O  0.53351954  0.72528915  0.58697310    -0.59200
O271        O  0.44511109  0.64265199  0.65421987    -0.49300
O272        O  0.47160134  0.68968641  0.57909628    -0.55600
C273        C  0.47098404  0.61324533  0.56423609     0.84400
O274        O  0.51891213  0.63238187  0.65120904    -0.57500
O275        O  0.49364690  0.69852385  0.66952689    -0.60800
In276      In  0.13839576  0.49308780  0.61778789     1.36900
C277        C  0.18575035  0.48435408  0.57115852     0.76900
O278        O  0.11027505  0.49031938  0.56206007    -0.61600
O279        O  0.13060995  0.54185251  0.59535226    -0.52500
C280        C  0.06615125  0.44329006  0.64212249     0.69500
O281        O  0.08708590  0.43132596  0.62744876    -0.47400
C282        C  0.17734237  0.52303515  0.68312546     0.74200
O283        O  0.15541062  0.45495694  0.58509601    -0.59200
O284        O  0.17900523  0.54460290  0.65583238    -0.49300
O285        O  0.19359396  0.51696816  0.58466523    -0.55600
C286        C  0.11487964  0.52398218  0.56460277     0.84400
O287        O  0.08321698  0.48010188  0.64595436    -0.57500
O288        O  0.15801045  0.48662124  0.67600243    -0.60800
C289        C  0.31000223  0.78204948  0.79433324     0.85800
C290        C  0.27489855  0.73952415  0.79122618    -0.54500
C291        C  0.27517632  0.72069525  0.75873799     0.08700
C292        C  0.31012453  0.74631483  0.73219366     0.19600
C293        C  0.34650591  0.77815970  0.79006785    -0.55200
C294        C  0.34628541  0.75916141  0.75775521     0.08800
C295        C  0.30851299  0.80228293  0.75781305    -0.54700
C296        C  0.30876426  0.78398822  0.72526213     0.09400
H297        H  0.25336630  0.72497976  0.81366212     0.13900
H298        H  0.31018739  0.73105994  0.70579597    -0.00400
H299        H  0.36928499  0.78745242  0.81168275     0.14200
H300        H  0.30854045  0.82962964  0.75771027     0.14000
In301      In  0.64402299  0.15664586  0.12407286     1.36900
C302        C  0.70017927  0.20425589  0.07657223     0.76900
O303        O  0.62067491  0.13360429  0.06631096    -0.61600
O304        O  0.58571425  0.14581362  0.10232169    -0.52500
C305        C  0.62611754  0.08574838  0.14786043     0.69500
O306        O  0.65994229  0.11061983  0.13559722    -0.47400
C307        C  0.65103874  0.19760320  0.18647221     0.74200
O308        O  0.69817553  0.17347007  0.08921081    -0.59200
O309        O  0.62907828  0.19457458  0.15906226    -0.49300
O310        O  0.67785551  0.21325251  0.09298518    -0.55600
C311        C  0.59046915  0.13583070  0.06964589     0.84400
O312        O  0.60282797  0.09826144  0.15016019    -0.57500
O313        O  0.67057449  0.18112327  0.18131808    -0.60800
In314      In  0.82049676  0.33493490  0.88627110     1.36900
C315        C  0.77333757  0.27914099  0.93459090     0.76900
O316        O  0.84555626  0.35860713  0.94320184    -0.61600
O317        O  0.83252462  0.39351839  0.90715783    -0.52500
C318        C  0.89152052  0.35388442  0.86254303     0.69500
O319        O  0.86698318  0.31968901  0.87455412    -0.47400
C320        C  0.78105126  0.33041268  0.82308942     0.74200
O321        O  0.80253350  0.27946458  0.92013883    -0.59200
O322        O  0.78033042  0.34832666  0.85221102    -0.49300
O323        O  0.76518812  0.30282969  0.91940471    -0.55600
C324        C  0.84344743  0.38890015  0.93961220     0.84400
O325        O  0.87861585  0.37691382  0.86088185    -0.57500
O326        O  0.79937664  0.31250402  0.82731996    -0.60800
In327      In  0.82413699  0.51233933  0.11862417     1.36900
C328        C  0.77879068  0.52240420  0.06972603     0.76900
O329        O  0.84950164  0.51234905  0.06257363    -0.61600
O330        O  0.82767800  0.46130419  0.09737063    -0.52500
C331        C  0.89754832  0.56031098  0.14326548     0.69500
O332        O  0.87628990  0.57330191  0.13129101    -0.47400
C333        C  0.78303411  0.48038651  0.18191793     0.74200
O334        O  0.80919077  0.55162597  0.08396189    -0.59200
O335        O  0.78340679  0.45985814  0.15494894    -0.49300
O336        O  0.76953639  0.48989888  0.08469405    -0.55600
C337        C  0.84239108  0.47773091  0.06587298     0.84400
O338        O  0.88037505  0.52330875  0.14423804    -0.57500
O339        O  0.80186780  0.51701121  0.17566436    -0.60800
In340      In  0.64023397  0.50954269  0.88463121     1.36900
C341        C  0.69774082  0.52171847  0.93205277     0.76900
O342        O  0.61677367  0.50966102  0.94159950    -0.61600
O343        O  0.58495536  0.45784613  0.90810883    -0.52500
C344        C  0.61259300  0.55447964  0.86176345     0.69500
O345        O  0.64790662  0.56916046  0.87272073    -0.47400
C346        C  0.65011064  0.48009864  0.82046204     0.74200
O347        O  0.69543736  0.55019933  0.91900987    -0.59200
O348        O  0.62883477  0.45848698  0.84727117    -0.49300
O349        O  0.67455109  0.48912509  0.91652876    -0.55600
C350        C  0.58825077  0.47482087  0.93948516     0.84400
O351        O  0.59307493  0.51741441  0.86021092    -0.57500
O352        O  0.66750748  0.51659125  0.82712610    -0.60800
In353      In  0.47111510  0.15983226  0.88675292     1.36900
C354        C  0.46158623  0.20474183  0.93578617     0.76900
O355        O  0.46924361  0.13255144  0.94275235    -0.61600
O356        O  0.52084295  0.15387955  0.90940865    -0.52500
C357        C  0.42089313  0.08742473  0.86197018     0.69500
O358        O  0.40932729  0.10876117  0.87638260    -0.47400
C359        C  0.50254468  0.20090555  0.82284472     0.74200
O360        O  0.43244746  0.17652758  0.91892466    -0.59200
O361        O  0.52327967  0.19964047  0.84945481    -0.49300
O362        O  0.49454812  0.21273094  0.92324295    -0.55600
C363        C  0.50365789  0.13899096  0.94058247     0.84400
O364        O  0.45770639  0.10404332  0.85867916    -0.57500
O365        O  0.46617563  0.18328279  0.82989009    -0.60800
In366      In  0.46553654  0.33453620  0.12280599     1.36900
C367        C  0.45614086  0.27920915  0.07459966     0.76900
O368        O  0.46393726  0.35898995  0.06642262    -0.61600
O369        O  0.51554905  0.39130448  0.10035976    -0.52500
C370        C  0.41780687  0.35717372  0.14863934     0.69500
O371        O  0.40480469  0.32249003  0.13680879    -0.47400
C372        C  0.49869217  0.32618326  0.18522549     0.74200
O373        O  0.42674002  0.27995770  0.08707378    -0.59200
O374        O  0.51863912  0.34761915  0.15778095    -0.49300
O375        O  0.48810259  0.30259420  0.09107077    -0.55600
C376        C  0.49858657  0.38788151  0.06879902     0.84400
O377        O  0.45480804  0.37877706  0.14907619    -0.57500
O378        O  0.46185285  0.30772258  0.18007532    -0.60800
In379      In  0.13703758  0.66709883  0.12121111     1.36900
C380        C  0.17363999  0.72646424  0.07256377     0.76900
O381        O  0.17057203  0.69857967  0.17443021    -0.61600
O382        O  0.16482129  0.64396193  0.16012757    -0.52500
C383        C  0.06533358  0.64388866  0.14750298     0.69500
O384        O  0.08787728  0.67826406  0.13473814    -0.47400
C385        C  0.13373660  0.61684500  0.06969365     0.74200
O386        O  0.13700942  0.70276866  0.07087536    -0.59200
O387        O  0.16510738  0.64144695  0.08625193    -0.49300
O388        O  0.18984397  0.72318059  0.10212459    -0.55600
C389        C  0.17845933  0.67246576  0.18298203     0.84400
O390        O  0.08085260  0.62320341  0.14946667    -0.57500
O391        O  0.10357846  0.61641617  0.08107204    -0.60800
In392      In  0.31786030  0.85066342  0.88799115     1.36900
C393        C  0.26379883  0.80645643  0.93925226     0.76900
O394        O  0.28495662  0.81274698  0.83674483    -0.61600
O395        O  0.33903273  0.81841441  0.85286323    -0.52500
C396        C  0.33681109  0.92069087  0.85986235     0.69500
O397        O  0.30427771  0.89852483  0.87601352    -0.47400
C398        C  0.37372607  0.87776327  0.94068112     0.74200
O399        O  0.25873772  0.82831532  0.91659260    -0.59200
O400        O  0.37537824  0.86130959  0.91069866    -0.49300
O401        O  0.29347495  0.80401399  0.93223688    -0.55600
C402        C  0.31089658  0.80441233  0.82944581     0.84400
O403        O  0.35736619  0.90539578  0.85532801    -0.57500
O404        O  0.34494586  0.88269069  0.94235285    -0.60800
In405      In  0.49468314  0.84931466  0.11684260     1.36900
C406        C  0.49878844  0.80181770  0.06687340     0.76900
O407        O  0.49320671  0.81482935  0.16932883    -0.61600
O408        O  0.44372794  0.81958204  0.15585807    -0.52500
C409        C  0.54725543  0.91981111  0.14396262     0.69500
O410        O  0.55776021  0.89865993  0.12725384    -0.47400
C411        C  0.46307889  0.87390513  0.06539189     0.74200
O412        O  0.52944846  0.82939957  0.08254378    -0.59200
O413        O  0.44521774  0.85590517  0.09524723    -0.49300
O414        O  0.46701495  0.79623599  0.08038483    -0.55600
C415        C  0.45921401  0.80701440  0.17877496     0.84400
O416        O  0.51077232  0.90349544  0.14886384    -0.57500
O417        O  0.49763440  0.88072380  0.06281560    -0.60800
In418      In  0.48200240  0.66147443  0.88364139     1.36900
C419        C  0.49454573  0.71888493  0.93060710     0.76900
O420        O  0.48988567  0.68777633  0.82542915    -0.61600
O421        O  0.43146619  0.65151567  0.84560404    -0.52500
C422        C  0.52799652  0.63525420  0.86155136     0.69500
O423        O  0.54201924  0.67085527  0.87088263    -0.47400
C424        C  0.44735721  0.60818272  0.93793054     0.74200
O425        O  0.52269299  0.71583367  0.91835190    -0.59200
O426        O  0.43063261  0.60497001  0.90621077    -0.49300
O427        O  0.46195060  0.69637879  0.91460705    -0.55600
C428        C  0.45351976  0.67147854  0.81845183     0.84400
O429        O  0.49092576  0.61456732  0.86143037    -0.57500
O430        O  0.48165743  0.63758661  0.94076769    -0.60800
In431      In  0.31062040  0.48450306  0.12280262     1.36900
C432        C  0.25510641  0.46954390  0.07180927     0.76900
O433        O  0.27890083  0.48893403  0.17471887    -0.61600
O434        O  0.33357463  0.53832784  0.15879684    -0.52500
C435        C  0.33389570  0.43719171  0.15050606     0.69500
O436        O  0.29935322  0.42390263  0.13813879    -0.47400
C437        C  0.36285002  0.51650805  0.06741561     0.74200
O438        O  0.25198363  0.44277807  0.09384145    -0.59200
O439        O  0.36459146  0.53516208  0.09708339    -0.49300
O440        O  0.28266082  0.50369483  0.08011539    -0.55600
C441        C  0.30593507  0.52372113  0.18246718     0.84400
O442        O  0.35470174  0.47411243  0.15123071    -0.57500
O443        O  0.33610367  0.48071867  0.06740401    -0.60800
In444      In  0.13136311  0.47915323  0.88824036     1.36900
C445        C  0.16862994  0.45647644  0.93526368     0.76900
O446        O  0.16321403  0.48267654  0.83363332    -0.61600
O447        O  0.15711420  0.53081417  0.84916419    -0.52500
C448        C  0.05843174  0.43065396  0.86266047     0.69500
O449        O  0.07958691  0.41779510  0.87519164    -0.47400
C450        C  0.13022475  0.52487276  0.94240995     0.74200
O451        O  0.13174905  0.44043201  0.93533606    -0.59200
O452        O  0.16016383  0.53449655  0.92265738    -0.49300
O453        O  0.18528368  0.47925592  0.90747292    -0.55600
C454        C  0.17046733  0.51690735  0.82557378     0.84400
O455        O  0.07574536  0.46759869  0.86092798    -0.57500
O456        O  0.10009403  0.49295178  0.93279864    -0.60800
C457        C  0.23150641  0.48093562  0.97035891    -0.14100
C458        C  0.19102750  0.45348386  0.96762496     0.08100
C459        C  0.17175748  0.42875723  0.99900043    -0.14100
C460        C  0.19241445  0.43266988  0.03298505    -0.14100
C461        C  0.23221833  0.46221592  0.03629480     0.08100
C462        C  0.25169291  0.48552115  0.00437246    -0.14100
H463        H  0.24721185  0.50055598  0.94689409     0.12100
H464        H  0.14046702  0.40754214  0.99776713     0.12100
H465        H  0.17699475  0.41394687  0.05706142     0.12100
H466        H  0.28270044  0.50780831  0.00587645     0.12100
C467        C  0.44415286  0.59340198  0.00695779    -0.14100
C468        C  0.42828936  0.58129049  0.97022128     0.08100
C469        C  0.39308110  0.54512679  0.96548924    -0.14100
C470        C  0.37312157  0.52231921  0.99730864    -0.14100
C471        C  0.38773364  0.53592799  0.03415778     0.08100
C472        C  0.42378592  0.57114119  0.03869448    -0.14100
H473        H  0.47133858  0.62117895  0.01136182     0.12100
H474        H  0.38043291  0.53515404  0.93741780     0.12100
H475        H  0.34509247  0.49532122  0.99324707     0.12100
H476        H  0.43549960  0.58213464  0.06685922     0.12100
C477        C  0.46356146  0.75631858  0.01329911    -0.14100
C478        C  0.49902312  0.77990090  0.03304653     0.08100
C479        C  0.53401903  0.78506926  0.01779184    -0.14100
C480        C  0.53324058  0.76642739  0.98358599    -0.14100
C481        C  0.49757408  0.74303920  0.96387067     0.08100
C482        C  0.46289087  0.73842774  0.97912295    -0.14100
H483        H  0.43614059  0.75213293  0.02394280     0.12100
H484        H  0.56183375  0.80348011  0.03221817     0.12100
H485        H  0.56032302  0.76992147  0.97281162     0.12100
H486        H  0.43482322  0.72013946  0.96504609     0.12100
C487        C  0.38652254  0.88258503  0.01013050    -0.14100
C488        C  0.40069530  0.88648327  0.97287960     0.08100
C489        C  0.43811024  0.89215867  0.96702240    -0.14100
C490        C  0.45997656  0.89125503  0.99784256    -0.14100
C491        C  0.44419535  0.88365328  0.03472151     0.08100
C492        C  0.40793205  0.88068187  0.04083983    -0.14100
H493        H  0.35752803  0.87783730  0.01521632     0.12100
H494        H  0.44952268  0.89527734  0.93847354     0.12100
H495        H  0.48795517  0.89371899  0.99245399     0.12100
H496        H  0.39525596  0.87492112  0.06905166     0.12100
C497        C  0.09592210  0.53872061  0.99362845    -0.14100
C498        C  0.13088659  0.54830236  0.97493711     0.08100
C499        C  0.16684471  0.57950075  0.98856195    -0.14100
C500        C  0.16780179  0.60105090  0.02017078    -0.14100
C501        C  0.13277788  0.59199421  0.03840099     0.08100
C502        C  0.09683215  0.56063778  0.02496715    -0.14100
H503        H  0.06788324  0.51450165  0.98384549     0.12100
H504        H  0.19425243  0.58713417  0.97489352     0.12100
H505        H  0.19586361  0.62530980  0.02986720     0.12100
H506        H  0.06945772  0.55318499  0.03859682     0.12100
C507        C  0.23672904  0.76443901  0.03824058    -0.14100
C508        C  0.19673926  0.75208394  0.04047914     0.08100
C509        C  0.17869454  0.75904210  0.00931557    -0.14100
C510        C  0.20033630  0.77749996  0.97624168    -0.14100
C511        C  0.23979714  0.78782061  0.97353967     0.08100
C512        C  0.25781539  0.78161572  0.00507123    -0.14100
H513        H  0.25135404  0.75903490  0.06150191     0.12100
H514        H  0.14775404  0.74937767  0.01020521     0.12100
H515        H  0.18599912  0.78250477  0.95245074     0.12100
H516        H  0.28845110  0.79006375  0.00408777     0.12100
C517        C  0.40964672  0.41080500  0.17406522    -0.14100
C518        C  0.39248041  0.37296030  0.15838260     0.08100
C519        C  0.35283924  0.35352799  0.14690066    -0.14100
C520        C  0.33202903  0.37319723  0.14759102    -0.14100
C521        C  0.35064627  0.41248803  0.15978562     0.08100
C522        C  0.38894112  0.43033825  0.17480209    -0.14100
H523        H  0.44002631  0.42637935  0.18349478     0.12100
H524        H  0.33888911  0.32431770  0.13474657     0.12100
H525        H  0.30252927  0.35875891  0.13585403     0.12100
H526        H  0.40395423  0.46048747  0.18467919     0.12100
C527        C  0.40921999  0.02531425  0.83271592    -0.14100
C528        C  0.39434204  0.04543116  0.85240951     0.08100
C529        C  0.35629785  0.02385047  0.86776493    -0.14100
C530        C  0.33533266  0.98260271  0.86697092    -0.14100
C531        C  0.35216410  0.96252491  0.85072433     0.08100
C532        C  0.38830414  0.98427693  0.83181051    -0.14100
H533        H  0.43825522  0.04121410  0.82019239     0.12100
H534        H  0.34409184  0.03866435  0.88300608     0.12100
H535        H  0.30751726  0.96655023  0.88176044     0.12100
H536        H  0.40184267  0.96960013  0.81875102     0.12100
C537        C  0.49302127  0.24930695  0.99077953    -0.14100
C538        C  0.45855438  0.22443428  0.97016588     0.08100
C539        C  0.42215039  0.21556240  0.98532818    -0.14100
C540        C  0.42059972  0.23206792  0.02017567    -0.14100
C541        C  0.45537206  0.25689832  0.04063284     0.08100
C542        C  0.49142863  0.26498080  0.02554172    -0.14100
H543        H  0.52150339  0.25624725  0.98035600     0.12100
H544        H  0.39504317  0.19589620  0.97035120     0.12100
H545        H  0.39244469  0.22579780  0.03087154     0.12100
H546        H  0.51885690  0.28438597  0.04019598     0.12100
C547        C  0.55420426  0.55839083  0.84315375    -0.14100
C548        C  0.59396299  0.57786279  0.85412605     0.08100
C549        C  0.61347766  0.61828850  0.86236742    -0.14100
C550        C  0.59274885  0.63809444  0.86227529    -0.14100
C551        C  0.55224329  0.61768471  0.85402347     0.08100
C552        C  0.53361079  0.57803607  0.84313289    -0.14100
H553        H  0.53833496  0.52729602  0.83652146     0.12100
H554        H  0.64411783  0.63402634  0.87092568     0.12100
H555        H  0.60783808  0.66867794  0.87077283     0.12100
H556        H  0.50247449  0.56152132  0.83646928     0.12100
C557        C  0.52602665  0.42056394  0.96738233    -0.14100
C558        C  0.56249333  0.45528389  0.97215036     0.08100
C559        C  0.57591925  0.46994132  0.00899988    -0.14100
C560        C  0.55424471  0.44891162  0.04076166    -0.14100
C561        C  0.51846516  0.41342914  0.03603641     0.08100
C562        C  0.50391788  0.39998102  0.99914040    -0.14100
H563        H  0.51514761  0.40883603  0.93919932     0.12100
H564        H  0.60413444  0.49666256  0.01332568     0.12100
H565        H  0.56603470  0.45969549  0.06895952     0.12100
H566        H  0.47646313  0.37243924  0.99484778     0.12100
C567        C  0.96188533  0.62503371  0.14110789    -0.14100
C568        C  0.93989972  0.58554514  0.15294300     0.08100
C569        C  0.95978032  0.56846144  0.16956111    -0.14100
C570        C  0.00084932  0.58904721  0.17103245    -0.14100
C571        C  0.02303001  0.62717696  0.15579667     0.08100
C572        C  0.00318748  0.64571962  0.14254375    -0.14100
H573        H  0.94733856  0.63898671  0.12827580     0.12100
H574        H  0.94365320  0.53824211  0.17935949     0.12100
H575        H  0.01524293  0.57407092  0.18176817     0.12100
H576        H  0.01952095  0.67510038  0.13065554     0.12100
C577        C  0.76545257  0.55987715  0.01905869    -0.14100
C578        C  0.75773371  0.52421976  0.03552433     0.08100
C579        C  0.73219032  0.48890418  0.01652309    -0.14100
C580        C  0.71481757  0.48893894  0.98206604    -0.14100
C581        C  0.72166462  0.52418676  0.96568271     0.08100
C582        C  0.74708533  0.55983534  0.98455757    -0.14100
H583        H  0.78551108  0.58759240  0.03281962     0.12100
H584        H  0.72608319  0.46094881  0.02793413     0.12100
H585        H  0.69502911  0.46087036  0.96867534     0.12100
H586        H  0.75243566  0.58741195  0.97287742     0.12100
C587        C  0.95599899  0.40388156  0.83519587    -0.14100
C588        C  0.93307788  0.36768227  0.85383077     0.08100
C589        C  0.95171379  0.34870691  0.86914957    -0.14100
C590        C  0.99296421  0.36762955  0.86914152    -0.14100
C591        C  0.01592729  0.40565636  0.85373990     0.08100
C592        C  0.99692094  0.42263245  0.83514182    -0.14100
H593        H  0.94242536  0.41898787  0.82276790     0.12100
H594        H  0.93469537  0.32076214  0.88369696     0.12100
H595        H  0.00685406  0.35389240  0.88373626     0.12100
H596        H  0.01380102  0.45173230  0.82270602     0.12100
C597        C  0.85644165  0.45238427  0.96655017    -0.14100
C598        C  0.84984091  0.41454336  0.97204295     0.08100
C599        C  0.84461514  0.39912354  0.00906223    -0.14100
C600        C  0.84369101  0.42034817  0.04001951    -0.14100
C601        C  0.84874692  0.45758280  0.03442193     0.08100
C602        C  0.85629954  0.47397146  0.99765008    -0.14100
H603        H  0.86043774  0.46468393  0.93819185     0.12100
H604        H  0.83899043  0.36970924  0.01385795     0.12100
H605        H  0.83768536  0.40710398  0.06807873     0.12100
H606        H  0.86017154  0.50267301  0.99267268     0.12100
C607        C  0.55983333  0.98043230  0.17667512    -0.14100
C608        C  0.57404260  0.96156061  0.15394305     0.08100
C609        C  0.61022256  0.98439387  0.13531588    -0.14100
C610        C  0.62970321  0.02559572  0.13632585    -0.14100
C611        C  0.61302058  0.04423700  0.15576789     0.08100
C612        C  0.57904152  0.02135877  0.17745097    -0.14100
H613        H  0.53217314  0.96353589  0.19159162     0.12100
H614        H  0.62167615  0.97055726  0.11742471     0.12100
H615        H  0.65582578  0.04265147  0.11923634     0.12100
H616        H  0.56579607  0.03503631  0.19293986     0.12100
C617        C  0.52896623  0.12814569  0.04168608    -0.14100
C618        C  0.56495017  0.13026510  0.03683941     0.08100
C619        C  0.57881360  0.13149018  0.99982857    -0.14100
C620        C  0.55811813  0.13280416  0.96820174    -0.14100
C621        C  0.52285778  0.13211974  0.97307735     0.08100
C622        C  0.50786141  0.12867781  0.00998189    -0.14100
H623        H  0.51783452  0.12738479  0.06993123     0.12100
H624        H  0.60671862  0.13348693  0.99536164     0.12100
H625        H  0.57025887  0.13554902  0.94005522     0.12100
H626        H  0.48080516  0.12841451  0.01445700     0.12100
C627        C  0.71305454  0.25109364  0.02403016    -0.14100
C628        C  0.72213755  0.22514618  0.04196095     0.08100
C629        C  0.74719546  0.21541699  0.02342546    -0.14100
C630        C  0.76310829  0.23178917  0.98768077    -0.14100
C631        C  0.75334934  0.25728975  0.96963813     0.08100
C632        C  0.72813349  0.26663801  0.98827979    -0.14100
H633        H  0.69326184  0.25862507  0.03717383     0.12100
H634        H  0.75413833  0.19495696  0.03636204     0.12100
H635        H  0.78313290  0.22473438  0.97429590     0.12100
H636        H  0.72061477  0.28678148  0.97557206     0.12100
C637        C  0.39795807  0.52799586  0.50449746    -0.14100
C638        C  0.40842467  0.54413030  0.46771159     0.08100
C639        C  0.44268855  0.58098833  0.46270856    -0.14100
C640        C  0.46492716  0.60230230  0.49430873    -0.14100
C641        C  0.45270243  0.58731961  0.53127875     0.08100
C642        C  0.41966664  0.54963201  0.53608396    -0.14100
H643        H  0.37148740  0.49968035  0.50913153     0.12100
H644        H  0.45122451  0.59405677  0.43464859     0.12100
H645        H  0.49015578  0.63157201  0.48997079     0.12100
H646        H  0.40965595  0.53762793  0.56432039     0.12100
C647        C  0.21570976  0.44731137  0.48558116    -0.14100
C648        C  0.24773424  0.48274205  0.47183895     0.08100
C649        C  0.26048368  0.51739436  0.49265264    -0.14100
C650        C  0.24143067  0.51706721  0.52587661    -0.14100
C651        C  0.20874180  0.48213867  0.53923943     0.08100
C652        C  0.19611824  0.44706624  0.51893774    -0.14100
H653        H  0.20559549  0.42007304  0.47036036     0.12100
H654        H  0.28555128  0.54505032  0.48334486     0.12100
H655        H  0.25185582  0.54461406  0.54066597     0.12100
H656        H  0.17067103  0.41977236  0.52831764     0.12100
C657        C  0.09976609  0.54750755  0.46451136    -0.14100
C658        C  0.10182489  0.58341445  0.46975565     0.08100
C659        C  0.10183653  0.59645564  0.50688092    -0.14100
C660        C  0.10388457  0.57592163  0.53826947    -0.14100
C661        C  0.10497163  0.54162493  0.53288847     0.08100
C662        C  0.10084707  0.52648163  0.49593766    -0.14100
H663        H  0.09953484  0.53683889  0.43614295     0.12100
H664        H  0.10341089  0.62413443  0.51160667     0.12100
H665        H  0.10658741  0.58786365  0.56653474     0.12100
H666        H  0.10132114  0.49985291  0.49111439     0.12100
C667        C  0.23391203  0.73458217  0.48757724    -0.14100
C668        C  0.20725763  0.74293471  0.47002321     0.08100
C669        C  0.19824348  0.76874565  0.48818357    -0.14100
C670        C  0.21582640  0.78586120  0.52331800    -0.14100
C671        C  0.24192462  0.77665760  0.54098481     0.08100
C672        C  0.25071487  0.75091806  0.52263125    -0.14100
H673        H  0.24130100  0.71462017  0.47455322     0.12100
H674        H  0.17733164  0.77523515  0.47552545     0.12100
H675        H  0.20912702  0.80621009  0.53658382     0.12100
H676        H  0.27142086  0.74395801  0.53499053     0.12100
C677        C  0.45567600  0.86797604  0.51115175    -0.14100
C678        C  0.44236524  0.86886260  0.47418784     0.08100
C679        C  0.40900372  0.87180680  0.46940824    -0.14100
C680        C  0.38842615  0.87248404  0.50113139    -0.14100
C681        C  0.40039755  0.86929944  0.53806716     0.08100
C682        C  0.43459336  0.86777606  0.54288106    -0.14100
H683        H  0.48127198  0.86544849  0.51548367     0.12100
H684        H  0.39830005  0.87258088  0.44117265     0.12100
H685        H  0.36198389  0.87348412  0.49665592     0.12100
H686        H  0.44429743  0.86518751  0.57104448     0.12100
C687        C  0.54123868  0.79097253  0.48513639    -0.14100
C688        C  0.50682220  0.77625539  0.46297821     0.08100
C689        C  0.47206143  0.74307618  0.47587187    -0.14100
C690        C  0.47120769  0.72568492  0.51057479    -0.14100
C691        C  0.50519396  0.74065544  0.53324454     0.08100
C692        C  0.54049782  0.77307817  0.51996952    -0.14100
H693        H  0.56832766  0.81686934  0.47608221     0.12100
H694        H  0.44497991  0.73118056  0.45966844     0.12100
H695        H  0.44374279  0.70015393  0.51951453     0.12100
H696        H  0.56730476  0.78464966  0.53654143     0.12100
C697        C  0.38554131  0.42502117  0.32763335    -0.14100
C698        C  0.35184771  0.41236431  0.34989613     0.08100
C699        C  0.33544500  0.37611624  0.36902156    -0.14100
C700        C  0.35501137  0.35521946  0.36940128    -0.14100
C701        C  0.39110391  0.37028250  0.35053431     0.08100
C702        C  0.40496627  0.40413950  0.32790455    -0.14100
H703        H  0.39852565  0.45262939  0.31225674     0.12100
H704        H  0.30953808  0.36575706  0.38648190     0.12100
H705        H  0.34371387  0.32923174  0.38712248     0.12100
H706        H  0.43247512  0.41615714  0.31270398     0.12100
C707        C  0.41214633  0.01872643  0.67636250    -0.14100
C708        C  0.39393182  0.03745646  0.65962066     0.08100
C709        C  0.35493847  0.01442446  0.64663572    -0.14100
C710        C  0.33613222  0.97328756  0.64664457    -0.14100
C711        C  0.35625785  0.95489473  0.65943136     0.08100
C712        C  0.39354640  0.97785391  0.67615299    -0.14100
H713        H  0.44206790  0.03571525  0.68696195     0.12100
H714        H  0.34021769  0.02813715  0.63366095     0.12100
H715        H  0.30722666  0.95615137  0.63379282     0.12100
H716        H  0.40952010  0.96440225  0.68666120     0.12100
C717        C  0.42284650  0.23200634  0.48761707    -0.14100
C718        C  0.45856311  0.25846851  0.46954319     0.08100
C719        C  0.49381190  0.26474563  0.48544742    -0.14100
C720        C  0.49369297  0.24550523  0.51865185    -0.14100
C721        C  0.45828412  0.21902487  0.53691464     0.08100
C722        C  0.42269425  0.21220035  0.52102242    -0.14100
H723        H  0.39525798  0.22701131  0.47622360     0.12100
H724        H  0.52186126  0.28517226  0.47251822     0.12100
H725        H  0.52161590  0.25113660  0.52978930     0.12100
H726        H  0.39492709  0.19156254  0.53426805     0.04900
C727        C  0.59571045  0.59418669  0.67860543    -0.14100
C728        C  0.62631848  0.60522643  0.65251583     0.08100
C729        C  0.63881468  0.63899186  0.63006947    -0.14100
C730        C  0.61791493  0.65854262  0.63055523    -0.14100
C731        C  0.58435884  0.64445413  0.65346609     0.08100
C732        C  0.57485592  0.61358768  0.67902919    -0.14100
H733        H  0.58579006  0.56848705  0.69649744     0.12100
H734        H  0.66219032  0.64794742  0.60955925     0.12100
H735        H  0.62568113  0.68215087  0.61040563     0.12100
H736        H  0.54933174  0.60241268  0.69720678     0.12100
C737        C  0.58233108  0.48187442  0.49389542    -0.14100
C738        C  0.56936467  0.47055937  0.53149333     0.08100
C739        C  0.53264225  0.43658142  0.53799851    -0.14100
C740        C  0.51014397  0.41312967  0.50751100    -0.14100
C741        C  0.52440069  0.42288940  0.47012398     0.08100
C742        C  0.56019334  0.45796075  0.46342969    -0.14100
H743        H  0.61073935  0.50784086  0.48819688     0.12100
H744        H  0.52211438  0.42726036  0.56674566     0.12100
H745        H  0.48266746  0.38613497  0.51341523     0.12100
H746        H  0.57174265  0.46609271  0.43483717     0.12100
C747        C  0.96689617  0.63380296  0.36368172    -0.14100
C748        C  0.94473496  0.59666459  0.34642504     0.08100
C749        C  0.96449287  0.58160763  0.32636621    -0.14100
C750        C  0.00545919  0.60097445  0.32722870    -0.14100
C751        C  0.02751976  0.63588751  0.34803221     0.08100
C752        C  0.00811769  0.65336001  0.36442079    -0.14100
H753        H  0.95241609  0.64608572  0.37936626     0.12100
H754        H  0.94820812  0.55322825  0.31250026     0.12100
H755        H  0.01968008  0.58707584  0.31395709     0.12100
H756        H  0.02448401  0.68032530  0.38058236     0.12100
C757        C  0.77669906  0.56347904  0.48564312    -0.14100
C758        C  0.76548884  0.52778808  0.46723946     0.08100
C759        C  0.73603069  0.49248397  0.48362787    -0.14100
C760        C  0.71809333  0.49260336  0.51746817    -0.14100
C761        C  0.72883009  0.52805950  0.53588920     0.08100
C762        C  0.75830837  0.56362617  0.51966062    -0.14100
H763        H  0.79980426  0.59109252  0.47396447     0.12100
H764        H  0.72700444  0.46444591  0.47047334     0.12100
H765        H  0.69513390  0.46471862  0.52885114     0.12100
H766        H  0.76679226  0.59143309  0.53300021     0.12100
C767        C  0.96407160  0.41294007  0.67325828    -0.14100
C768        C  0.94129276  0.37691433  0.65433088     0.08100
C769        C  0.96032113  0.35936202  0.63725186    -0.14100
C770        C  0.00157306  0.37950073  0.63592814    -0.14100
C771        C  0.02412033  0.41736510  0.65162594     0.08100
C772        C  0.00500681  0.43296941  0.67185761    -0.14100
H773        H  0.95025106  0.42706663  0.68687989     0.12100
H774        H  0.94344991  0.33164002  0.62236728     0.12100
H775        H  0.01562852  0.36681124  0.62018472     0.12100
H776        H  0.02163784  0.46192399  0.68455608     0.12100
C777        C  0.86127954  0.41149941  0.49654265    -0.14100
C778        C  0.86185802  0.42535039  0.53340416     0.08100
C779        C  0.86543033  0.46204674  0.53799903    -0.14100
C780        C  0.86632826  0.48365128  0.50615415    -0.14100
C781        C  0.86264551  0.46836433  0.46934722     0.08100
C782        C  0.86115640  0.43262571  0.46471588    -0.14100
H783        H  0.85828701  0.38310204  0.49234686     0.12100
H784        H  0.86593550  0.47325369  0.56617064     0.12100
H785        H  0.86732369  0.51110728  0.51044298     0.12100
H786        H  0.85826039  0.42027310  0.43662117     0.12100
C787        C  0.60704663  0.98293226  0.36741165    -0.14100
C788        C  0.56903150  0.96092372  0.35173826     0.08100
C789        C  0.55339073  0.98070603  0.33226055    -0.14100
C790        C  0.57354929  0.02173683  0.33178782    -0.14100
C791        C  0.60962580  0.04385367  0.35107151     0.08100
C792        C  0.62719046  0.02418591  0.36718947    -0.14100
H793        H  0.61981452  0.96836752  0.38250783     0.12100
H794        H  0.52433800  0.96447483  0.31954331     0.12100
H795        H  0.55939957  0.03603054  0.31881152     0.12100
H796        H  0.65500004  0.04048747  0.38219123     0.12100
C797        C  0.56790449  0.11476650  0.50834815    -0.14100
C798        C  0.55647660  0.11821084  0.47128435     0.08100
C799        C  0.52170600  0.11856011  0.46586598    -0.14100
C800        C  0.49996408  0.11788757  0.49721356    -0.14100
C801        C  0.51331703  0.11793576  0.53435806     0.08100
C802        C  0.54673824  0.11514763  0.53971985    -0.14100
H803        H  0.59476554  0.11464729  0.51323028     0.12100
H804        H  0.51239160  0.12125787  0.43754609     0.12100
H805        H  0.47430013  0.12020339  0.49243171     0.12100
H806        H  0.55745072  0.11504788  0.56812945     0.12100
C807        C  0.72607201  0.27087912  0.52435347    -0.14100
C808        C  0.75526405  0.26540486  0.54055841     0.08100
C809        C  0.76428233  0.23938635  0.52292551    -0.14100
C810        C  0.74465643  0.21955152  0.48945364    -0.14100
C811        C  0.71588161  0.22561355  0.47304280     0.08100
C812        C  0.70666407  0.25127149  0.49105825    -0.14100
H813        H  0.71863841  0.29093499  0.53706569     0.12100
H814        H  0.78700109  0.23498271  0.53456918     0.12100
H815        H  0.75189405  0.19946609  0.47648819     0.12100
H816        H  0.68419450  0.25611549  0.47950879     0.12100
C817        C  0.39208176  0.72954909  0.74863731    -0.14000
C818        C  0.37327974  0.74543705  0.75209097    -0.15600
C819        C  0.25006976  0.67848139  0.75378824    -0.14000
C820        C  0.23292528  0.64290755  0.75233967    -0.15600
C821        C  0.29793266  0.58817615  0.75422158    -0.14000
C822        C  0.33342249  0.60725959  0.75159037    -0.15600
C823        C  0.62478902  0.26196778  0.75782284    -0.14000
C824        C  0.66031556  0.27937751  0.75646114    -0.15600
C825        C  0.58720155  0.35895397  0.75410451    -0.14000
C826        C  0.56759451  0.32333273  0.75380813    -0.15600
C827        C  0.71027882  0.41793158  0.75813667    -0.14000
C828        C  0.72745757  0.40016775  0.75970922    -0.15600
C829        C  0.30384259  0.73476595  0.25912136    -0.14000
C830        C  0.33930864  0.75103100  0.25922618    -0.15600
C831        C  0.70852494  0.32240883  0.24809768    -0.14000
C832        C  0.72519616  0.35791696  0.24657210    -0.15600
C833        C  0.23906728  0.61241407  0.26158741    -0.14000
C834        C  0.25415033  0.59262131  0.26116455    -0.15600
C835        C  0.37347625  0.64764494  0.25851607    -0.14000
C836        C  0.39224412  0.68321801  0.25722264    -0.15600
C837        C  0.56687768  0.27070866  0.24809396    -0.14000
C838        C  0.58627372  0.25522693  0.24737526    -0.15600
C839        C  0.65953595  0.41138552  0.24708467    -0.14000
C840        C  0.62393786  0.39165193  0.24610658    -0.15600
loop_ 
_geom_bond_atom_site_label_1 
_geom_bond_atom_site_label_2 
_geom_bond_distance 
_geom_bond_site_symmetry_2 
_ccdc_geom_bond_type 
C1            C2   1.540       .  S
C1            C7   1.525       .  S
C1            C5   1.543       .  S
C1          C208   1.511       .  S
C2            H9   1.086       .  S
C2            C3   1.373       .  D
C3            C4   1.543       .  S
C3          C837   1.451       .  S
C4            C8   1.550       .  S
C4            C6   1.539       .  S
C4           H10   1.111       .  S
C5           H11   1.087       .  S
C5            C6   1.361       .  D
C6          C840   1.451       .  S
C7           H12   1.087       .  S
C7            C8   1.360       .  D
C8          C372   1.474       .  S
C13          C14   1.539       .  S
C13          C19   1.526       .  S
C13          C17   1.545       .  S
C13         C441   1.515       .  S
C14          H21   1.086       .  S
C14          C15   1.372       .  D
C15          C16   1.544       .  S
C15         C834   1.453       .  S
C16          C20   1.550       .  S
C16          C18   1.536       .  S
C16          H22   1.111       .  S
C17          H23   1.086       .  S
C17          C18   1.364       .  D
C18         C835   1.450       .  S
C19          H24   1.087       .  S
C19          C20   1.361       .  D
C20         C256   1.478       .  S
C25          C26   1.542       .  S
C25          C31   1.526       .  S
C25          C29   1.544       .  S
C25         C169   1.515       .  S
C26          H33   1.086       .  S
C26          C27   1.374       .  D
C27          C28   1.542       .  S
C27         C839   1.452       .  S
C28          C32   1.548       .  S
C28          C30   1.537       .  S
C28          H34   1.111       .  S
C29          H35   1.087       .  S
C29          C30   1.361       .  D
C30         C832   1.449       .  S
C31          H36   1.087       .  S
C31          C32   1.361       .  D
C32         C333   1.475       .  S
C37          C38   1.539       .  S
C37          C43   1.525       .  S
C37          C41   1.543       .  S
C37         C143   1.510       .  S
C38          H45   1.086       .  S
C38          C39   1.372       .  D
C39          C40   1.542       .  S
C39         C831   1.449       .  S
C40          C44   1.549       .  S
C40          C42   1.539       .  S
C40          H46   1.111       .  S
C41          H47   1.087       .  S
C41          C42   1.361       .  D
C42         C838   1.451       .  S
C43          H48   1.087       .  S
C43          C44   1.360       .  D
C44         C307   1.474       .  S
C49          C50   1.539       .  S
C49          C55   1.523       .  S
C49          C53   1.543       .  S
C49         C389   1.506       .  S
C50          H57   1.086       .  S
C50          C51   1.370       .  D
C51          C52   1.542       .  S
C51         C829   1.447       .  S
C52          C56   1.549       .  S
C52          C54   1.540       .  S
C52          H58   1.111       .  S
C53          H59   1.086       .  S
C53          C54   1.363       .  D
C54         C833   1.453       .  S
C55          H60   1.087       .  S
C55          C56   1.360       .  D
C56         C230   1.473       .  S
C61          C62   1.537       .  S
C61          C67   1.530       .  S
C61          C65   1.544       .  S
C61         C415   1.510       .  S
C62          H69   1.086       .  S
C62          C63   1.369       .  D
C63          C64   1.542       .  S
C63         C836   1.449       .  S
C64          C68   1.546       .  S
C64          C66   1.536       .  S
C64          H70   1.111       .  S
C65          H71   1.086       .  S
C65          C66   1.361       .  D
C66         C830   1.447       .  S
C67          H72   1.087       .  S
C67          C68   1.364       .  D
C68         C217   1.474       .  S
C73          C74   1.538       .  S
C73          C79   1.528       .  S
C73          C77   1.545       .  S
C73         C182   1.513       .  S
C74          H81   1.086       .  S
C74          C75   1.370       .  D
C75          C76   1.543       .  S
C75         C827   1.452       .  S
C76          C80   1.549       .  S
C76          C78   1.539       .  S
C76          H82   1.111       .  S
C77          H83   1.086       .  S
C77          C78   1.363       .  D
C78         C825   1.452       .  S
C79          H84   1.087       .  S
C79          C80   1.363       .  D
C80         C346   1.479       .  S
C85          C86   1.541       .  S
C85          C91   1.529       .  S
C85          C89   1.542       .  S
C85         C195   1.513       .  S
C86          H93   1.086       .  S
C86          C87   1.372       .  D
C87          C88   1.543       .  S
C87         C826   1.452       .  S
C88          C92   1.549       .  S
C88          C90   1.538       .  S
C88          H94   1.111       .  S
C89          H95   1.087       .  S
C89          C90   1.360       .  D
C90         C823   1.448       .  S
C91          H96   1.087       .  S
C91          C92   1.364       .  D
C92         C359   1.480       .  S
C97          C98   1.538       .  S
C97         C103   1.528       .  S
C97         C101   1.545       .  S
C97         C454   1.512       .  S
C98         H105   1.086       .  S
C98          C99   1.368       .  D
C99         C100   1.544       .  S
C99         C821   1.450       .  S
C100        C104   1.550       .  S
C100        C102   1.539       .  S
C100        H106   1.111       .  S
C101        H107   1.086       .  S
C101        C102   1.363       .  D
C102        C820   1.452       .  S
C103        H108   1.087       .  S
C103        C104   1.365       .  D
C104        C282   1.482       .  S
C109        C110   1.546       .  S
C109        C115   1.527       .  S
C109        C113   1.539       .  S
C109        C269   1.509       .  S
C110        H117   1.086       .  S
C110        C111   1.364       .  D
C111        C112   1.537       .  S
C111        C822   1.450       .  S
C112        C116   1.547       .  S
C112        C114   1.543       .  S
C112        H118   1.111       .  S
C113        H119   1.086       .  S
C113        C114   1.369       .  D
C114        C817   1.449       .  S
C115        H120   1.087       .  S
C115        C116   1.361       .  D
C116        C428   1.477       .  S
C121        C122   1.541       .  S
C121        C127   1.524       .  S
C121        C125   1.543       .  S
C121        C156   1.511       .  S
C122        H129   1.086       .  S
C122        C123   1.371       .  D
C123        C124   1.539       .  S
C123        C824   1.448       .  S
C124        C128   1.548       .  S
C124        C126   1.540       .  S
C124        H130   1.111       .  S
C125        H131   1.086       .  S
C125        C126   1.364       .  D
C126        C828   1.452       .  S
C127        H132   1.087       .  S
C127        C128   1.361       .  D
C128        C320   1.475       .  S
In133       O135   2.272       .  S
In133       O136   2.221       .  S
In133       O144   2.230       .  S
In133       O138   2.270       .  S
In133       O140   2.268       .  S
In133       O141   2.245       .  S
In133       O142   2.220       .  S
In133       O145   2.232       .  S
C134        O140   1.266       .  A
C134        O142   1.259       .  A
C134        C811   1.480       .  S
O135        C143   1.266       .  A
O136        C143   1.260       .  A
C137        O144   1.259       .  A
C137        O138   1.264       .  A
C137        C791   1.481       .  S
C139        O141   1.262       .  A
C139        O145   1.258       .  A
C139        C798   1.470       .  S
In146       O148   2.270       .  S
In146       O149   2.235       .  S
In146       O157   2.224       .  S
In146       O151   2.274       .  S
In146       O153   2.263       .  S
In146       O154   2.247       .  S
In146       O155   2.223       .  S
In146       O158   2.232       .  S
C147        O153   1.266       .  A
C147        O155   1.260       .  A
C147        C808   1.480       .  S
O148        C156   1.265       .  A
O149        C156   1.260       .  A
C150        O157   1.259       .  A
C150        O151   1.264       .  A
C150        C768   1.479       .  S
C152        O154   1.263       .  A
C152        O158   1.258       .  A
C152        C778   1.469       .  S
In159       O161   2.282       .  S
In159       O162   2.226       .  S
In159       O170   2.227       .  S
In159       O164   2.273       .  S
In159       O166   2.271       .  S
In159       O167   2.252       .  S
In159       O168   2.214       .  S
In159       O171   2.234       .  S
C160        O166   1.266       .  A
C160        O168   1.260       .  A
C160        C758   1.480       .  S
O161        C169   1.267       .  A
O162        C169   1.260       .  A
C163        O170   1.258       .  A
C163        O164   1.264       .  A
C163        C748   1.480       .  S
C165        O167   1.262       .  A
C165        O171   1.258       .  A
C165        C781   1.471       .  S
In172       O174   2.276       .  S
In172       O175   2.230       .  S
In172       O183   2.227       .  S
In172       O177   2.272       .  S
In172       O179   2.271       .  S
In172       O180   2.245       .  S
In172       O181   2.217       .  S
In172       O184   2.244       .  S
C173        O179   1.265       .  A
C173        O181   1.260       .  A
C173        C761   1.481       .  S
O174        C182   1.266       .  A
O175        C182   1.259       .  A
C176        O183   1.258       .  A
C176        O177   1.263       .  A
C176        C728   1.476       .  S
C178        O180   1.261       .  A
C178        O184   1.258       .  A
C178        C738   1.471       .  S
In185       O187   2.275       .  S
In185       O188   2.225       .  S
In185       O196   2.211       .  S
In185       O190   2.270       .  S
In185       O192   2.274       .  S
In185       O193   2.244       .  S
In185       O194   2.207       .  S
In185       O197   2.233       .  S
C186        O192   1.268       .  A
C186        O194   1.261       .  A
C186        C721   1.481       .  S
O187        C195   1.266       .  A
O188        C195   1.261       .  A
C189        O196   1.258       .  A
C189        O190   1.266       .  A
C189        C708   1.477       .  S
C191        O193   1.264       .  A
C191        O197   1.260       .  A
C191        C801   1.470       .  S
In198       O200   2.275       .  S
In198       O201   2.225       .  S
In198       O209   2.235       .  S
In198       O203   2.268       .  S
In198       O205   2.274       .  S
In198       O206   2.252       .  S
In198       O207   2.213       .  S
In198       O210   2.237       .  S
C199        O205   1.265       .  A
C199        O207   1.260       .  A
C199        C718   1.481       .  S
O200        C208   1.265       .  A
O201        C208   1.259       .  A
C202        O209   1.258       .  A
C202        O203   1.263       .  A
C202        C701   1.480       .  S
C204        O206   1.262       .  A
C204        O210   1.258       .  A
C204        C741   1.473       .  S
In211       O213   2.227       .  S
In211       O214   2.250       .  S
In211       O222   2.225       .  S
In211       O216   2.261       .  S
In211       O218   2.263       .  S
In211       O219   2.251       .  S
In211       O220   2.216       .  S
In211       O223   2.244       .  S
C212        O218   1.265       .  A
C212        O220   1.260       .  A
C212        C688   1.477       .  S
O213        C221   1.257       .  A
O214        C221   1.264       .  A
C215        O222   1.261       .  A
C215        O216   1.265       .  A
C215        C788   1.479       .  S
C217        O219   1.261       .  A
C217        O223   1.264       .  A
C221        C678   1.470       .  S
In224       O226   2.222       .  S
In224       O227   2.245       .  S
In224       O235   2.222       .  S
In224       O229   2.258       .  S
In224       O231   2.272       .  S
In224       O232   2.262       .  S
In224       O233   2.212       .  S
In224       O236   2.238       .  S
C225        O231   1.265       .  A
C225        O233   1.259       .  A
C225        C668   1.479       .  S
O226        C234   1.258       .  A
O227        C234   1.264       .  A
C228        O235   1.262       .  A
C228        O229   1.266       .  A
C228        C751   1.478       .  S
C230        O232   1.259       .  A
C230        O236   1.263       .  A
C234        C658   1.468       .  S
In237       O239   2.225       .  S
In237       O240   2.254       .  S
In237       O248   2.224       .  S
In237       O242   2.252       .  S
In237       O244   2.264       .  S
In237       O245   2.261       .  S
In237       O246   2.214       .  S
In237       O249   2.239       .  S
C238        O244   1.263       .  A
C238        O246   1.260       .  A
C238        C671   1.477       .  S
O239        C247   1.257       .  A
O240        C247   1.265       .  A
C241        O248   1.262       .  A
C241        O242   1.264       .  A
C241        C711   1.476       .  S
C243        C296   1.474       .  S
C243        O245   1.260       .  A
C243        O249   1.262       .  A
C247        C681   1.472       .  S
In250       O252   2.217       .  S
In250       O253   2.252       .  S
In250       O261   2.232       .  S
In250       O255   2.261       .  S
In250       O257   2.282       .  S
In250       O258   2.268       .  S
In250       O259   2.219       .  S
In250       O262   2.244       .  S
C251        O257   1.265       .  A
C251        O259   1.259       .  A
C251        C648   1.483       .  S
O252        C260   1.258       .  A
O253        C260   1.265       .  A
C254        O261   1.262       .  A
C254        O255   1.265       .  A
C254        C698   1.479       .  S
C256        O258   1.260       .  A
C256        O262   1.263       .  A
C260        C638   1.470       .  S
In263       O265   2.230       .  S
In263       O266   2.246       .  S
In263       O274   2.233       .  S
In263       O268   2.261       .  S
In263       O270   2.265       .  S
In263       O271   2.236       .  S
In263       O272   2.206       .  S
In263       O275   2.266       .  S
C264        O270   1.266       .  A
C264        O272   1.260       .  A
C264        C691   1.476       .  S
O265        C273   1.257       .  A
O266        C273   1.263       .  A
C267        O274   1.260       .  A
C267        O268   1.262       .  A
C267        C731   1.476       .  S
C269        O271   1.259       .  A
C269        O275   1.265       .  A
C273        C641   1.468       .  S
In276       O278   2.222       .  S
In276       O279   2.254       .  S
In276       O287   2.216       .  S
In276       O281   2.261       .  S
In276       O283   2.274       .  S
In276       O284   2.271       .  S
In276       O285   2.222       .  S
In276       O288   2.244       .  S
C277        O283   1.265       .  A
C277        O285   1.261       .  A
C277        C651   1.483       .  S
O278        C286   1.257       .  A
O279        C286   1.265       .  A
C280        O287   1.262       .  A
C280        O281   1.267       .  A
C280        C771   1.478       .  S
C282        O284   1.262       .  A
C282        O288   1.264       .  A
C286        C661   1.470       .  S
C289        C290   1.540       .  S
C289        C295   1.528       .  S
C289        C293   1.546       .  S
C289        C402   1.514       .  S
C290        H297   1.086       .  S
C290        C291   1.371       .  D
C291        C292   1.542       .  S
C291        C819   1.452       .  S
C292        C296   1.545       .  S
C292        C294   1.536       .  S
C292        H298   1.111       .  S
C293        H299   1.086       .  S
C293        C294   1.364       .  D
C294        C818   1.450       .  S
C295        H300   1.087       .  S
C295        C296   1.361       .  D
In301       O303   2.220       .  S
In301       O304   2.256       .  S
In301       O312   2.229       .  S
In301       O306   2.260       .  S
In301       O308   2.262       .  S
In301       O309   2.258       .  S
In301       O310   2.219       .  S
In301       O313   2.243       .  S
C302        O308   1.263       .  A
C302        O310   1.260       .  A
C302        C628   1.477       .  S
O303        C311   1.256       .  A
O304        C311   1.264       .  A
C305        O312   1.262       .  A
C305        O306   1.264       .  A
C305        C611   1.476       .  S
C307        O309   1.259       .  A
C307        O313   1.264       .  A
C311        C618   1.470       .  S
In314       O316   2.213       .  S
In314       O317   2.248       .  S
In314       O325   2.221       .  S
In314       O319   2.265       .  S
In314       O321   2.268       .  S
In314       O322   2.262       .  S
In314       O323   2.220       .  S
In314       O326   2.238       .  S
C315        O321   1.264       .  A
C315        O323   1.260       .  A
C315        C631   1.479       .  S
O316        C324   1.256       .  A
O317        C324   1.263       .  A
C318        O325   1.262       .  A
C318        O319   1.266       .  A
C318        C588   1.480       .  S
C320        O322   1.259       .  A
C320        O326   1.264       .  A
C324        C598   1.463       .  S
In327       O329   2.218       .  S
In327       O330   2.238       .  S
In327       O338   2.229       .  S
In327       O332   2.271       .  S
In327       O334   2.283       .  S
In327       O335   2.259       .  S
In327       O336   2.213       .  S
In327       O339   2.243       .  S
C328        O334   1.266       .  A
C328        O336   1.259       .  A
C328        C578   1.483       .  S
O329        C337   1.258       .  A
O330        C337   1.264       .  A
C331        O338   1.261       .  A
C331        O332   1.267       .  A
C331        C568   1.484       .  S
C333        O335   1.259       .  A
C333        O339   1.264       .  A
C337        C601   1.466       .  S
In340       O342   2.215       .  S
In340       O343   2.249       .  S
In340       O351   2.222       .  S
In340       O345   2.265       .  S
In340       O347   2.279       .  S
In340       O348   2.262       .  S
In340       O349   2.213       .  S
In340       O352   2.246       .  S
C341        O347   1.266       .  A
C341        O349   1.260       .  A
C341        C581   1.483       .  S
O342        C350   1.257       .  A
O343        C350   1.266       .  A
C344        O351   1.262       .  A
C344        O345   1.267       .  A
C344        C548   1.482       .  S
C346        O348   1.261       .  A
C346        O352   1.265       .  A
C350        C558   1.467       .  S
In353       O355   2.224       .  S
In353       O356   2.250       .  S
In353       O364   2.229       .  S
In353       O358   2.261       .  S
In353       O360   2.275       .  S
In353       O361   2.266       .  S
In353       O362   2.217       .  S
In353       O365   2.250       .  S
C354        O360   1.265       .  A
C354        O362   1.260       .  A
C354        C538   1.482       .  S
O355        C363   1.258       .  A
O356        C363   1.265       .  A
C357        O364   1.261       .  A
C357        O358   1.265       .  A
C357        C528   1.479       .  S
C359        O361   1.260       .  A
C359        O365   1.263       .  A
C363        C621   1.470       .  S
In366       O368   2.217       .  S
In366       O369   2.240       .  S
In366       O377   2.220       .  S
In366       O371   2.262       .  S
In366       O373   2.279       .  S
In366       O374   2.252       .  S
In366       O375   2.208       .  S
In366       O378   2.242       .  S
C367        O373   1.266       .  A
C367        O375   1.259       .  A
C367        C541   1.481       .  S
O368        C376   1.258       .  A
O369        C376   1.264       .  A
C370        O377   1.262       .  A
C370        O371   1.267       .  A
C370        C518   1.480       .  S
C372        O374   1.259       .  A
C372        O378   1.265       .  A
C376        C561   1.466       .  S
In379       O381   2.258       .  S
In379       O382   2.227       .  S
In379       O390   2.234       .  S
In379       O384   2.272       .  S
In379       O386   2.261       .  S
In379       O387   2.238       .  S
In379       O388   2.231       .  S
In379       O391   2.246       .  S
C380        O386   1.260       .  A
C380        O388   1.260       .  A
C380        C508   1.478       .  S
O381        C389   1.265       .  A
O382        C389   1.261       .  A
C383        O390   1.260       .  A
C383        O384   1.265       .  A
C383        C571   1.484       .  S
C385        O387   1.258       .  A
C385        O391   1.259       .  A
C385        C501   1.469       .  S
In392       O394   2.275       .  S
In392       O395   2.242       .  S
In392       O403   2.230       .  S
In392       O397   2.269       .  S
In392       O399   2.277       .  S
In392       O400   2.241       .  S
In392       O401   2.219       .  S
In392       O404   2.237       .  S
C393        O399   1.266       .  A
C393        O401   1.259       .  A
C393        C511   1.478       .  S
O394        C402   1.265       .  A
O395        C402   1.259       .  A
C396        O403   1.258       .  A
C396        O397   1.263       .  A
C396        C531   1.479       .  S
C398        O400   1.263       .  A
C398        O404   1.259       .  A
C398        C488   1.467       .  S
In405       O407   2.275       .  S
In405       O408   2.218       .  S
In405       O416   2.214       .  S
In405       O410   2.273       .  S
In405       O412   2.271       .  S
In405       O413   2.242       .  S
In405       O414   2.215       .  S
In405       O417   2.237       .  S
C406        O412   1.266       .  A
C406        O414   1.260       .  A
C406        C478   1.480       .  S
O407        C415   1.266       .  A
O408        C415   1.259       .  A
C409        O416   1.258       .  A
C409        O410   1.265       .  A
C409        C608   1.477       .  S
C411        O413   1.262       .  A
C411        O417   1.259       .  A
C411        C491   1.470       .  S
In418       O420   2.241       .  S
In418       O421   2.264       .  S
In418       O429   2.218       .  S
In418       O423   2.264       .  S
In418       O425   2.269       .  S
In418       O426   2.257       .  S
In418       O427   2.219       .  S
In418       O430   2.213       .  S
C419        O425   1.265       .  A
C419        O427   1.260       .  A
C419        C481   1.481       .  S
O420        C428   1.263       .  A
O421        C428   1.261       .  A
C422        O429   1.262       .  A
C422        O423   1.267       .  A
C422        C551   1.481       .  S
C424        O426   1.266       .  A
C424        O430   1.258       .  A
C424        C468   1.471       .  S
In431       O433   2.283       .  S
In431       O434   2.236       .  S
In431       O442   2.228       .  S
In431       O436   2.274       .  S
In431       O438   2.280       .  S
In431       O439   2.237       .  S
In431       O440   2.217       .  S
In431       O443   2.242       .  S
C432        O438   1.266       .  A
C432        O440   1.259       .  A
C432        C461   1.477       .  S
O433        C441   1.265       .  A
O434        C441   1.258       .  A
C435        O442   1.257       .  A
C435        O436   1.263       .  A
C435        C521   1.479       .  S
C437        O439   1.263       .  A
C437        O443   1.260       .  A
C437        C471   1.468       .  S
In444       O446   2.269       .  S
In444       O447   2.227       .  S
In444       O455   2.224       .  S
In444       O449   2.278       .  S
In444       O451   2.260       .  S
In444       O452   2.239       .  S
In444       O453   2.242       .  S
In444       O456   2.245       .  S
C445        O451   1.260       .  A
C445        O453   1.261       .  A
C445        C458   1.481       .  S
O446        C454   1.267       .  A
O447        C454   1.261       .  A
C448        O455   1.260       .  A
C448        O449   1.266       .  A
C448        C591   1.482       .  S
C450        O452   1.258       .  A
C450        O456   1.258       .  A
C450        C498   1.470       .  S
C457        C458   1.403       .  A
C457        C462   1.394   1_556  A
C457        H463   1.083       .  S
C458        C459   1.410       .  A
C459        C460   1.407   1_556  A
C459        H464   1.083       .  S
C460        C461   1.403       .  A
C460        H465   1.083       .  S
C461        C462   1.405       .  A
C462        H466   1.084       .  S
C467        C468   1.405   1_554  A
C467        C472   1.393       .  A
C467        H473   1.083       .  S
C468        C469   1.402       .  A
C469        C470   1.399       .  A
C469        H474   1.083       .  S
C470        C471   1.406   1_556  A
C470        H475   1.083       .  S
C471        C472   1.399       .  A
C472        H476   1.083       .  S
C477        C478   1.404       .  A
C477        C482   1.392   1_554  A
C477        H483   1.083       .  S
C478        C479   1.407       .  A
C479        C480   1.407   1_554  A
C479        H484   1.083       .  S
C480        C481   1.408       .  A
C480        H485   1.083       .  S
C481        C482   1.404       .  A
C482        H486   1.083       .  S
C487        C488   1.404   1_554  A
C487        C492   1.396       .  A
C487        H493   1.083       .  S
C488        C489   1.401       .  A
C489        C490   1.396       .  A
C489        H494   1.083       .  S
C490        C491   1.405   1_556  A
C490        H495   1.083       .  S
C491        C492   1.403       .  A
C492        H496   1.083       .  S
C497        C498   1.404       .  A
C497        C502   1.396   1_556  A
C497        H503   1.083       .  S
C498        C499   1.403       .  A
C499        C500   1.394   1_556  A
C499        H504   1.083       .  S
C500        C501   1.403       .  A
C500        H505   1.083       .  S
C501        C502   1.403       .  A
C502        H506   1.083       .  S
C507        C508   1.403       .  A
C507        C512   1.392       .  A
C507        H513   1.083       .  S
C508        C509   1.408       .  A
C509        C510   1.407   1_554  A
C509        H514   1.083       .  S
C510        C511   1.405       .  A
C510        H515   1.083       .  S
C511        C512   1.404   1_556  A
C512        H516   1.084       .  S
C517        C518   1.404       .  A
C517        C522   1.395       .  A
C517        H523   1.083       .  S
C518        C519   1.406       .  A
C519        C520   1.403       .  A
C519        H524   1.083       .  S
C520        C521   1.406       .  A
C520        H525   1.083       .  S
C521        C522   1.405       .  A
C522        H526   1.083       .  S
C527        C528   1.404       .  A
C527        C532   1.396   1_545  A
C527        H533   1.083       .  S
C528        C529   1.406       .  A
C529        C530   1.403   1_545  A
C529        H534   1.083       .  S
C530        C531   1.406       .  A
C530        H535   1.083       .  S
C531        C532   1.405       .  A
C532        H536   1.083       .  S
C537        C538   1.403       .  A
C537        C542   1.391   1_556  A
C537        H543   1.083       .  S
C538        C539   1.408       .  A
C539        C540   1.409   1_556  A
C539        H544   1.083       .  S
C540        C541   1.407       .  A
C540        H545   1.083       .  S
C541        C542   1.404       .  A
C542        H546   1.083       .  S
C547        C548   1.405       .  A
C547        C552   1.395       .  A
C547        H553   1.083       .  S
C548        C549   1.406       .  A
C549        C550   1.405       .  A
C549        H554   1.083       .  S
C550        C551   1.406       .  A
C550        H555   1.083       .  S
C551        C552   1.404       .  A
C552        H556   1.083       .  S
C557        C558   1.400       .  A
C557        C562   1.395       .  A
C557        H563   1.084       .  S
C558        C559   1.406   1_556  A
C559        C560   1.394       .  A
C559        H564   1.083       .  S
C560        C561   1.400       .  A
C560        H565   1.084       .  S
C561        C562   1.406   1_554  A
C562        H566   1.083       .  S
C567        C568   1.406       .  A
C567        C572   1.405   1_655  A
C567        H573   1.083       .  S
C568        C569   1.405       .  A
C569        C570   1.397   1_655  A
C569        H574   1.083       .  S
C570        C571   1.405       .  A
C570        H575   1.083       .  S
C571        C572   1.407       .  A
C572        H576   1.083       .  S
C577        C578   1.408       .  A
C577        C582   1.410   1_554  A
C577        H583   1.083       .  S
C578        C579   1.404       .  A
C579        C580   1.390   1_554  A
C579        H584   1.083       .  S
C580        C581   1.403       .  A
C580        H585   1.084       .  S
C581        C582   1.409       .  A
C582        H586   1.082       .  S
C587        C588   1.403       .  A
C587        C592   1.395       .  A
C587        H593   1.083       .  S
C588        C589   1.407       .  A
C589        C590   1.406       .  A
C589        H594   1.083       .  S
C590        C591   1.407   1_655  A
C590        H595   1.083   1_655  S
C591        C592   1.404   1_455  A
C592        H596   1.083   1_655  S
C597        C598   1.400       .  A
C597        C602   1.395       .  A
C597        H603   1.083       .  S
C598        C599   1.405   1_556  A
C599        C600   1.392       .  A
C599        H604   1.083       .  S
C600        C601   1.400       .  A
C600        H605   1.083       .  S
C601        C602   1.406   1_554  A
C602        H606   1.083       .  S
C607        C608   1.405       .  A
C607        C612   1.394   1_565  A
C607        H613   1.083       .  S
C608        C609   1.405       .  A
C609        C610   1.403   1_565  A
C609        H614   1.083       .  S
C610        C611   1.406       .  A
C610        H615   1.083       .  S
C611        C612   1.402       .  A
C612        H616   1.083       .  S
C617        C618   1.401       .  A
C617        C622   1.397       .  A
C617        H623   1.083       .  S
C618        C619   1.406   1_554  A
C619        C620   1.395       .  A
C619        H624   1.083       .  S
C620        C621   1.400       .  A
C620        H625   1.083       .  S
C621        C622   1.407   1_556  A
C622        H626   1.083       .  S
C627        C628   1.403       .  A
C627        C632   1.392   1_554  A
C627        H633   1.083       .  S
C628        C629   1.407       .  A
C629        C630   1.406   1_554  A
C629        H634   1.083       .  S
C630        C631   1.407       .  A
C630        H635   1.083       .  S
C631        C632   1.404       .  A
C632        H636   1.083       .  S
C637        C638   1.406       .  A
C637        C642   1.394       .  A
C637        H643   1.083       .  S
C638        C639   1.402       .  A
C639        C640   1.397       .  A
C639        H644   1.083       .  S
C640        C641   1.406       .  A
C640        H645   1.083       .  S
C641        C642   1.399       .  A
C642        H646   1.083       .  S
C647        C648   1.407       .  A
C647        C652   1.409       .  A
C647        H653   1.083       .  S
C648        C649   1.404       .  A
C649        C650   1.392       .  A
C649        H654   1.083       .  S
C650        C651   1.403       .  A
C650        H655   1.083       .  S
C651        C652   1.409       .  A
C652        H656   1.083       .  S
C657        C658   1.400       .  A
C657        C662   1.395       .  A
C657        H663   1.083       .  S
C658        C659   1.406       .  A
C659        C660   1.396       .  A
C659        H664   1.083       .  S
C660        C661   1.401       .  A
C660        H665   1.083       .  S
C661        C662   1.406       .  A
C662        H666   1.083       .  S
C667        C668   1.403       .  A
C667        C672   1.390       .  A
C667        H673   1.083       .  S
C668        C669   1.407       .  A
C669        C670   1.407       .  A
C669        H674   1.083       .  S
C670        C671   1.407       .  A
C670        H675   1.083       .  S
C671        C672   1.403       .  A
C672        H676   1.083       .  S
C677        C678   1.406       .  A
C677        C682   1.397       .  A
C677        H683   1.083       .  S
C678        C679   1.400       .  A
C679        C680   1.396       .  A
C679        H684   1.083       .  S
C680        C681   1.407       .  A
C680        H685   1.083       .  S
C681        C682   1.401       .  A
C682        H686   1.083       .  S
C687        C688   1.407       .  A
C687        C692   1.405       .  A
C687        H693   1.083       .  S
C688        C689   1.403       .  A
C689        C690   1.390       .  A
C689        H694   1.083       .  S
C690        C691   1.404       .  A
C690        H695   1.083       .  S
C691        C692   1.406       .  A
C692        H696   1.083       .  S
C697        C698   1.404       .  A
C697        C702   1.397       .  A
C697        H703   1.083       .  S
C698        C699   1.405       .  A
C699        C700   1.403       .  A
C699        H704   1.083       .  S
C700        C701   1.405       .  A
C700        H705   1.083       .  S
C701        C702   1.405       .  A
C702        H706   1.083       .  S
C707        C708   1.405       .  A
C707        C712   1.394   1_545  A
C707        H713   1.083       .  S
C708        C709   1.405       .  A
C709        C710   1.402   1_545  A
C709        H714   1.083       .  S
C710        C711   1.406       .  A
C710        H715   1.083       .  S
C711        C712   1.402       .  A
C712        H716   1.083       .  S
C717        C718   1.408       .  A
C717        C722   1.408       .  A
C717        H723   1.083       .  S
C718        C719   1.403       .  A
C719        C720   1.390       .  A
C719        H724   1.083       .  S
C720        C721   1.404       .  A
C720        H725   1.083       .  S
C721        C722   1.407       .  A
C722        H726   1.083       .  S
C727        C728   1.404       .  A
C727        C732   1.396       .  A
C727        H733   1.083       .  S
C728        C729   1.405       .  A
C729        C730   1.402       .  A
C729        H734   1.083       .  S
C730        C731   1.406       .  A
C730        H735   1.083       .  S
C731        C732   1.403       .  A
C732        H736   1.083       .  S
C737        C738   1.405       .  A
C737        C742   1.398       .  A
C737        H743   1.083       .  S
C738        C739   1.402       .  A
C739        C740   1.396       .  A
C739        H744   1.083       .  S
C740        C741   1.405       .  A
C740        H745   1.083       .  S
C741        C742   1.403       .  A
C742        H746   1.083       .  S
C747        C748   1.406       .  A
C747        C752   1.404   1_655  A
C747        H753   1.083       .  S
C748        C749   1.405       .  A
C749        C750   1.395   1_655  A
C749        H754   1.083       .  S
C750        C751   1.403       .  A
C750        H755   1.083       .  S
C751        C752   1.406       .  A
C752        H756   1.083       .  S
C757        C758   1.407       .  A
C757        C762   1.407       .  A
C757        H763   1.083       .  S
C758        C759   1.403       .  A
C759        C760   1.392       .  A
C759        H764   1.083       .  S
C760        C761   1.404       .  A
C760        H765   1.083       .  S
C761        C762   1.407       .  A
C762        H766   1.083       .  S
C767        C768   1.404       .  A
C767        C772   1.394   1_655  A
C767        H773   1.083       .  S
C768        C769   1.407       .  A
C769        C770   1.404   1_655  A
C769        H774   1.083       .  S
C770        C771   1.406       .  A
C770        H775   1.083       .  S
C771        C772   1.403       .  A
C772        H776   1.083       .  S
C777        C778   1.405       .  A
C777        C782   1.397       .  A
C777        H783   1.083       .  S
C778        C779   1.401       .  A
C779        C780   1.396       .  A
C779        H784   1.083       .  S
C780        C781   1.406       .  A
C780        H785   1.083       .  S
C781        C782   1.402       .  A
C782        H786   1.083       .  S
C787        C788   1.406       .  A
C787        C792   1.404   1_565  A
C787        H793   1.083       .  S
C788        C789   1.404       .  A
C789        C790   1.396   1_565  A
C789        H794   1.083       .  S
C790        C791   1.405       .  A
C790        H795   1.083       .  S
C791        C792   1.406       .  A
C792        H796   1.083       .  S
C797        C798   1.405       .  A
C797        C802   1.396       .  A
C797        H803   1.083       .  S
C798        C799   1.402       .  A
C799        C800   1.396       .  A
C799        H804   1.083       .  S
C800        C801   1.405       .  A
C800        H805   1.083       .  S
C801        C802   1.401       .  A
C802        H806   1.083       .  S
C807        C808   1.404       .  A
C807        C812   1.394       .  A
C807        H813   1.083       .  S
C808        C809   1.406       .  A
C809        C810   1.404       .  A
C809        H814   1.083       .  S
C810        C811   1.406       .  A
C810        H815   1.083       .  S
C811        C812   1.405       .  A
C812        H816   1.083       .  S
C817        C818   1.211       .  T
C819        C820   1.212       .  T
C821        C822   1.211       .  T
C823        C824   1.210       .  T
C825        C826   1.212       .  T
C827        C828   1.212       .  T
C829        C830   1.209       .  T
C831        C832   1.210       .  T
C833        C834   1.212       .  T
C835        C836   1.210       .  T
C837        C838   1.212       .  T
C839        C840   1.212       .  T
