geometry optimzed in LAMMPS
_audit_creation_date              2020-11-30 
_audit_creation_method            'lammps2cif' 
_symmetry_space_group_name_H-M    'P1' 
_symmetry_Int_Tables_number       1 
_symmetry_cell_setting            triclinic 
loop_ 
_symmetry_equiv_pos_as_xyz 
  x,y,z 
_cell_length_a                    36.38628002378505 
_cell_length_b                    35.4891857982354 
_cell_length_c                    31.098002926992258 
_cell_angle_alpha                 90.60702403073844 
_cell_angle_beta                  89.41505681431485 
_cell_angle_gamma                 86.88382002781289 
loop_ 
_atom_site_label 
_atom_site_type_symbol 
_atom_site_fract_x 
_atom_site_fract_y 
_atom_site_fract_z 
_atom_site_charge 
O1          O  0.41197400  0.46858963  0.48887389    -0.80080
O2          O  0.06201602  0.00795948  0.45364984    -0.80100
O3          O  0.48752560  0.05327978  0.43393965    -0.80110
O4          O  0.01043435  0.44551562  0.44008206    -0.80050
O5          O  0.02668549  0.07567606  0.47763099    -0.80180
O6          O  0.47059656  0.41822026  0.48248938    -0.80100
O7          O  0.08071791  0.44941141  0.46877418    -0.80080
O8          O  0.43356447  0.00436304  0.43825831    -0.80120
C9          C  0.40980156  0.48284210  0.45158625     1.09610
C10         C  0.08477363  0.97899912  0.44735804     1.09490
C11         C  0.50927992  0.07847428  0.44280370     1.09630
C12         C  0.98868975  0.41943185  0.44702983     1.09510
O13         O  0.49505423  0.44514434  0.56811639    -0.80080
O14         O  0.00868834  0.04950537  0.56090972    -0.80160
O15         O  0.41102191  0.03371319  0.52287368    -0.80090
O16         O  0.06356273  0.48514194  0.54406155    -0.80070
O17         O  0.07845855  0.04284588  0.52805192    -0.80130
O18         O  0.43991590  0.49725561  0.56921920    -0.80090
O19         O  0.03189847  0.41858140  0.52140800    -0.80050
O20         O  0.46764679  0.08081349  0.52143523    -0.80120
Co21       Co  0.45641538  0.45935151  0.52664923     1.51530
Co22       Co  0.03294908  0.02656469  0.50925273     1.51690
Co23       Co  0.45224580  0.04063922  0.47938355     1.51570
Co24       Co  0.03453094  0.46778227  0.48991668     1.51470
O25         O  0.48742202  0.49862192  0.50055422    -1.42020
C26         C  0.01641288  0.41763808  0.55780728     1.09540
C27         C  0.48684709  0.07805711  0.55557817     1.09630
C28         C  0.41258535  0.51845510  0.55978155     1.09560
C29         C  0.08435429  0.01318302  0.54967197     1.09540
C30         C  0.50049310  0.21569295  0.34277220     0.03190
C31         C  0.49879189  0.21482376  0.29769777    -0.12960
C32         C  0.49273294  0.24807189  0.27436139     0.00690
C33         C  0.48922757  0.28297288  0.29627760    -0.11490
C34         C  0.49207154  0.28442481  0.34136284     0.03180
C35         C  0.49762902  0.25074821  0.36436834    -0.10910
H36         H  0.50241229  0.18813627  0.28050780     0.08770
H37         H  0.48535301  0.30885985  0.27831999     0.06300
H38         H  0.49928982  0.25188975  0.39913437     0.06150
C39         C  0.28051150  0.49326648  0.34679843     0.03190
C40         C  0.24582281  0.48911427  0.36567257    -0.12960
C41         C  0.21358698  0.49325298  0.34152899     0.00690
C42         C  0.21606775  0.50088736  0.29754822    -0.11490
C43         C  0.25058856  0.50478424  0.27821530     0.03180
C44         C  0.28256191  0.50184162  0.30291647    -0.10910
H45         H  0.24366292  0.98210193  0.39940070     0.08770
H46         H  0.19150690  0.50210614  0.27807762     0.06300
H47         H  0.30890384  0.50555646  0.28750975     0.06150
C48         C  0.27893375  0.50955517  0.65934978     0.03190
C49         C  0.24628849  0.50857452  0.63599886    -0.12960
C50         C  0.21269074  0.50290265  0.65677908     0.00690
C51         C  0.21214662  0.49561379  0.70095066    -0.11490
C52         C  0.24475875  0.49565148  0.72444226     0.03180
C53         C  0.27794051  0.50307433  0.70378989    -0.10910
H54         H  0.24682873  0.01210660  0.60145740     0.08770
H55         H  0.18622325  0.49180606  0.71740647     0.06300
H56         H  0.30281474  0.50441795  0.72250839     0.06150
C57         C  0.49981391  0.21351983  0.65890188     0.03190
C58         C  0.50631084  0.24642717  0.63573844    -0.12960
C59         C  0.51391692  0.28020479  0.65715034     0.00690
C60         C  0.51515005  0.28061586  0.70232865    -0.11490
C61         C  0.50816068  0.24826843  0.72586324     0.03180
C62         C  0.50062075  0.21475780  0.70410522    -0.10910
H63         H  0.50505183  0.24576777  0.60099350     0.08770
H64         H  0.52080585  0.30641687  0.71939968     0.06300
H65         H  0.49517481  0.18977496  0.72234855     0.06150
C66         C  0.26194246  0.47071656  0.16395889     0.03190
C67         C  0.25906288  0.47136302  0.20887553    -0.12960
C68         C  0.25392362  0.50564733  0.23130733     0.00690
C69         C  0.25277411  0.03978993  0.20903424    -0.11490
C70         C  0.25678224  0.03938421  0.16410234     0.03180
C71         C  0.26092416  0.50484668  0.14185248    -0.10910
H72         H  0.26080200  0.44520675  0.22659125     0.08770
H73         H  0.24966409  0.06633192  0.22657461     0.06300
H74         H  0.26271169  0.50462938  0.10702236     0.06150
O75         O  0.27690190  0.33361657  0.02170600    -0.80080
O76         O  0.22525720  0.18616823  0.04627188    -0.80100
O77         O  0.18553981  0.26153356  0.06893538    -0.80110
O78         O  0.32903533  0.21807375  0.02260965    -0.80050
O79         O  0.16557043  0.22083525  0.02301616    -0.80180
O80         O  0.31208902  0.27353889  0.04591493    -0.80100
O81         O  0.27845857  0.16800708  0.02132626    -0.80080
O82         O  0.23770690  0.31300410  0.06814577    -0.80120
C83         C  0.26027765  0.33704723  0.05775858     1.09610
C84         C  0.25341523  0.16481755  0.04872982     1.09490
C85         C  0.16184886  0.23849855  0.05874855     1.09630
C86         C  0.33302810  0.24479134  0.04855433     1.09510
O87         O  0.32910624  0.29749351  0.96604051    -0.80080
O88         O  0.19833731  0.24090459  0.94044734    -0.80160
O89         O  0.21876771  0.33192481  0.98026020    -0.80090
O90         O  0.25296322  0.18887786  0.93667574    -0.80070
O91         O  0.20165496  0.16813764  0.96604346    -0.80130
O92         O  0.25789288  0.29838762  0.94004686    -0.80090
O93         O  0.31117571  0.24442907  0.93641827    -0.80050
O94         O  0.16661221  0.28088062  0.98140821    -0.80120
Co95       Co  0.28507914  0.28292665  0.99238029     1.51530
Co96       Co  0.21497481  0.21325224  0.99272709     1.51690
Co97       Co  0.20514340  0.29396606  0.02426259     1.51570
Co98       Co  0.28732748  0.21050605  0.98228761     1.51470
O99         O  0.24590693  0.25250363  0.01171253    -1.42020
C100        C  0.33465636  0.27075300  0.93888675     1.09540
C101        C  0.17028400  0.26293766  0.94604327     1.09630
C102        C  0.23588552  0.32682468  0.94475131     1.09560
C103        C  0.22810373  0.16400444  0.93902862     1.09540
C104        C  0.02751054  0.23463277  0.15999107     0.03190
C105        C  0.02640353  0.23918271  0.20489681    -0.12960
C106        C  0.49279476  0.24568763  0.22689807     0.00690
C107        C  0.45971443  0.24724625  0.20380623    -0.11490
C108        C  0.46024527  0.24213108  0.15877713     0.03180
C109        C  0.49433664  0.23596937  0.13736206    -0.10950
H110        H  0.05180111  0.23780638  0.22287963     0.08770
H111        H  0.43382454  0.25250789  0.22087267     0.06300
H112        H  0.49506249  0.23308958  0.10266579     0.06150
C113        C  0.23756473  0.45826074  0.83765247     0.03190
C114        C  0.24057577  0.45904133  0.79252834    -0.12960
C115        C  0.24324156  0.49359970  0.77144333     0.00690
C116        C  0.24282407  0.02724117  0.79518507    -0.11490
C117        C  0.23974859  0.02671244  0.83985597     0.03180
C118        C  0.23759325  0.49236908  0.86111722    -0.10910
H119        H  0.24025815  0.43308351  0.77390321     0.08770
H120        H  0.24418180  0.05396392  0.77878564     0.06300
H121        H  0.23564245  0.49231470  0.89591886     0.06150
C122        C  0.03889904  0.25835622  0.84139584     0.03190
C123        C  0.03979653  0.25380024  0.79639499    -0.12960
C124        C  0.50716087  0.25036541  0.77331292     0.00690
C125        C  0.47319982  0.25181570  0.79521963    -0.11490
C126        C  0.47149437  0.25678582  0.84008039     0.03180
C127        C  0.50451581  0.25956614  0.86291529    -0.10910
H128        H  0.06583650  0.25351341  0.77913209     0.08770
H129        H  0.44803686  0.25064282  0.77703551     0.06300
H130        H  0.50333099  0.26230872  0.89761703     0.06150
C131        C  0.23696598  0.06243899  0.86401693    -0.05410
C132        C  0.20222048  0.08029347  0.87172842    -0.32840
C133        C  0.19877366  0.11419814  0.89510128     0.36410
C134        C  0.23051366  0.13093297  0.91011093    -0.05770
C135        C  0.26535109  0.11347844  0.90109901    -0.32740
C136        C  0.26866411  0.07914676  0.87864450     0.36320
H137        H  0.17773962  0.06766245  0.85997458     0.16690
O138        O  0.16444352  0.13112382  0.90232280    -0.60230
H139        H  0.28998630  0.12569667  0.91302793     0.16700
O140        O  0.30288690  0.06201658  0.87131775    -0.60330
H141        H  0.30724624  0.04501383  0.89607382     0.43700
H142        H  0.15408917  0.11752646  0.92695833     0.43650
C143        C  0.23309581  0.35688137  0.91191874    -0.05410
C144        C  0.20639924  0.38667727  0.91779883    -0.32840
C145        C  0.20667070  0.41895574  0.89258945     0.36410
C146        C  0.23403548  0.42222023  0.86069429    -0.05770
C147        C  0.25929332  0.39153616  0.85270135    -0.32740
C148        C  0.25897407  0.35899411  0.87793395     0.36320
H149        H  0.18582601  0.38563077  0.94313303     0.16690
O150        O  0.18057463  0.44766676  0.90026272    -0.60230
H151        H  0.28041785  0.39348835  0.82813990     0.16700
O152        O  0.28560190  0.33071061  0.87083466    -0.60330
H153        H  0.27462623  0.31316634  0.85018482     0.43700
H154        H  0.16099656  0.44373009  0.87898953     0.43650
C155        C  0.42587142  0.24425155  0.13299679    -0.05410
C156        C  0.42512038  0.26528446  0.09492046    -0.32840
C157        C  0.39494224  0.26526903  0.06754558     0.36410
C158        C  0.36442651  0.24444597  0.07802428    -0.05770
C159        C  0.36451238  0.22376682  0.11619650    -0.32740
C160        C  0.39489387  0.22378926  0.14388698     0.36320
H161        H  0.44833003  0.28152857  0.08599884     0.16690
O162        O  0.39572356  0.28535783  0.03013375    -0.60230
H163        H  0.34113735  0.20749881  0.12441761     0.16700
O164        O  0.39486970  0.20214844  0.18016101    -0.60330
H165        H  0.37830852  0.21632393  0.20088600     0.43700
H166        H  0.40635129  0.26732864  0.00816486     0.43650
C167        C  0.06332698  0.23214666  0.13635985    -0.05410
C168        C  0.08972414  0.25800254  0.14663905    -0.32840
C169        C  0.12220955  0.25950243  0.12261099     0.36410
C170        C  0.12922675  0.23459248  0.08725823    -0.05770
C171        C  0.10349588  0.20756671  0.07801862    -0.32740
C172        C  0.07073877  0.20623001  0.10220207     0.36320
H173        H  0.08454427  0.27832803  0.17253883     0.16690
O174        O  0.14643619  0.28621742  0.13360098    -0.60230
H175        H  0.10842364  0.18778605  0.05154814     0.16700
O176        O  0.04659521  0.17893756  0.09298290    -0.60330
H177        H  0.03602324  0.18574953  0.06465087     0.43700
H178        H  0.13763742  0.30944805  0.11853912     0.43650
C179        C  0.36774405  0.26979693  0.90994141    -0.05410
C180        C  0.37454254  0.23937818  0.88099908    -0.32840
C181        C  0.40772952  0.23512440  0.85744097     0.36410
C182        C  0.43525500  0.26118510  0.86298326    -0.05770
C183        C  0.42815559  0.29206098  0.89097564    -0.32740
C184        C  0.39482809  0.29675497  0.91390112     0.36320
H185        H  0.35453752  0.21807866  0.87741877     0.16690
O186        O  0.41393281  0.20408251  0.83117717    -0.60230
H187        H  0.44869361  0.31275375  0.89518353     0.16700
O188        O  0.38981198  0.32717447  0.94129623    -0.60330
H189        H  0.37781928  0.34742714  0.92376019     0.43700
H190        H  0.39877535  0.20924329  0.80535496     0.43650
C191        C  0.13929937  0.26460494  0.91484656    -0.05410
C192        C  0.10927985  0.29066307  0.92225450    -0.32840
C193        C  0.07690076  0.28938623  0.89828342     0.36410
C194        C  0.07382890  0.26175161  0.86578389    -0.05770
C195        C  0.10448487  0.23688077  0.85682209    -0.32740
C196        C  0.13696013  0.23822427  0.88077461     0.36320
H197        H  0.11042629  0.31174415  0.94759004     0.16690
O198        O  0.04876416  0.31600197  0.90608880    -0.60230
H199        H  0.10291341  0.21547909  0.83190793     0.16700
O200        O  0.16543098  0.21235013  0.87182932    -0.60330
H201        H  0.18107551  0.22467768  0.85044197     0.43700
H202        H  0.03857428  0.30989759  0.93473937     0.43650
C203        C  0.25766427  0.07448373  0.13937880    -0.05410
C204        C  0.28712666  0.07876350  0.11080976    -0.32840
C205        C  0.28681673  0.10879132  0.08232000     0.36410
C206        C  0.25638493  0.13520111  0.08176495    -0.05770
C207        C  0.22756003  0.13176459  0.11177478    -0.32740
C208        C  0.22813039  0.10170189  0.14058755     0.36320
H209        H  0.31010240  0.05799201  0.10976253     0.16690
O210        O  0.31564018  0.11082222  0.05381527    -0.60230
H211        H  0.20392603  0.15171127  0.11206521     0.16700
O212        O  0.19851569  0.09760452  0.16744797    -0.60330
H213        H  0.20227418  0.11483495  0.19213671     0.43700
H214        H  0.33365935  0.12627484  0.06866166     0.43650
C215        C  0.26453038  0.43465512  0.13965193    -0.05410
C216        C  0.28961065  0.42966098  0.10507595    -0.32840
C217        C  0.28955936  0.39756301  0.07853904     0.36410
C218        C  0.26448611  0.36961140  0.08687306    -0.05770
C219        C  0.24059402  0.37402466  0.12264282    -0.32740
C220        C  0.24028413  0.40617256  0.14869238     0.36320
H221        H  0.30877018  0.45115328  0.09803079     0.16690
O222        O  0.31383634  0.39406803  0.04452139    -0.60230
H223        H  0.22076462  0.35318046  0.12969590     0.16700
O224        O  0.21408099  0.41083742  0.18065897    -0.60330
H225        H  0.22206404  0.39302884  0.20354467     0.43700
H226        H  0.30163840  0.40817435  0.02076105     0.43650
C227        C  0.51763769  0.31584107  0.63287949    -0.05410
C228        C  0.49821567  0.34884285  0.64746375    -0.32840
C229        C  0.49917191  0.38248414  0.62464694     0.36410
C230        C  0.51949189  0.38380551  0.58571244    -0.05770
C231        C  0.04005867  0.35115795  0.57184933    -0.32740
C232        C  0.03922383  0.31738401  0.59501616     0.36320
H233        H  0.48122848  0.34838098  0.67625581     0.16690
O234        O  0.47876070  0.41345001  0.64003983    -0.60230
H235        H  0.05618524  0.35146146  0.54238985     0.16700
O236        O  0.06033865  0.28635675  0.58104082    -0.60330
H237        H  0.04863184  0.27785862  0.55421688     0.43700
H238        H  0.49570206  0.42698889  0.65876424     0.43650
C239        C  0.48684866  0.11058727  0.58636822    -0.05410
C240        C  0.46361481  0.14283079  0.57897711    -0.32840
C241        C  0.46683749  0.17614268  0.60301185     0.36410
C242        C  0.49327901  0.17766329  0.63567316    -0.05770
C243        C  0.01505287  0.14493380  0.64483948    -0.32740
C244        C  0.01228272  0.11175583  0.62043377     0.36320
H245        H  0.44352191  0.14275210  0.55351466     0.16690
O246        O  0.44357584  0.20692465  0.59486815    -0.60230
H247        H  0.03545849  0.14552944  0.66994117     0.16700
O248        O  0.03529288  0.08105462  0.62962594    -0.60330
H249        H  0.05874571  0.08542853  0.61439910     0.43700
H250        H  0.45175380  0.21659214  0.56673129     0.43650
C251        C  0.49073726  0.32100676  0.36485054    -0.05410
C252        C  0.45684161  0.33817848  0.37837377    -0.32840
C253        C  0.45553039  0.37083731  0.40447225     0.36410
C254        C  0.48837625  0.38731486  0.41627439    -0.05770
C255        C  0.02216151  0.37072879  0.40143191    -0.32740
C256        C  0.02350619  0.33747986  0.37663631     0.36320
H257        H  0.43143442  0.32560871  0.36970200     0.16690
O258        O  0.42208552  0.38671078  0.41777187    -0.60230
H259        H  0.04774767  0.38263104  0.41077258     0.16700
O260        O  0.05702226  0.32089563  0.36461438    -0.60330
H261        H  0.06403195  0.30364724  0.38841515     0.43700
H262        H  0.41562031  0.37281407  0.44403847     0.43650
C263        C  0.51044316  0.11238853  0.41521216    -0.05410
C264        C  0.48490166  0.11674574  0.38175967    -0.32840
C265        C  0.48170775  0.14994175  0.35798840     0.36410
C266        C  0.50445056  0.17983988  0.36706625    -0.05770
C267        C  0.03056837  0.17542735  0.39991109    -0.32740
C268        C  0.03379633  0.14203526  0.42377874     0.36320
H269        H  0.46618999  0.09481296  0.37477126     0.16690
O270        O  0.45443565  0.15391066  0.32793620    -0.60230
H271        H  0.04848404  0.19800646  0.40716328     0.16700
O272        O  0.05914089  0.13924234  0.45607851    -0.60330
H273        H  0.08155924  0.12693691  0.44254922     0.43700
H274        H  0.46256223  0.13704972  0.30362005     0.43650
C275        C  0.11482804  0.51133985  0.58087890    -0.05410
C276        C  0.13900310  0.04080139  0.58167433    -0.32840
C277        C  0.17044981  0.03856676  0.60690069     0.36410
C278        C  0.17815025  0.50662330  0.63236097    -0.05770
C279        C  0.15301396  0.47802175  0.63360256    -0.32740
C280        C  0.12145620  0.48018047  0.60812345     0.36320
H281        H  0.13423764  0.06544104  0.56180060     0.16690
O282        O  0.19326383  0.06814622  0.60722810    -0.60230
H283        H  0.15840530  0.45346958  0.65345257     0.16700
O284        O  0.09801309  0.45121646  0.60929480    -0.60330
H285        H  0.07904020  0.45900341  0.63122684     0.43700
H286        H  0.20578562  0.06730712  0.57871964     0.43650
C287        C  0.38035836  0.52019282  0.58937600    -0.05410
C288        C  0.35035676  0.04589047  0.58218198    -0.32840
C289        C  0.31741591  0.04372009  0.60564179     0.36410
C290        C  0.31423343  0.51556167  0.63696989    -0.05770
C291        C  0.34471562  0.49123107  0.64565236    -0.32740
C292        C  0.37741101  0.49318526  0.62230615     0.36320
H293        H  0.35209529  0.06708222  0.55752890     0.16690
O294        O  0.28884699  0.06965356  0.59839005    -0.60230
H295        H  0.34272883  0.46931594  0.66944069     0.16700
O296        O  0.40572701  0.46735057  0.63099670    -0.60330
H297        H  0.40064435  0.44459296  0.61371144     0.43700
H298        H  0.27999753  0.06388165  0.56910488     0.43650
C299        C  0.17791315  0.48752388  0.36285741    -0.05410
C300        C  0.17459355  0.45538368  0.38806980    -0.32840
C301        C  0.14380143  0.45150808  0.41426878     0.36410
C302        C  0.11534610  0.48021236  0.41568846    -0.05770
C303        C  0.11771161  0.01156740  0.38867972    -0.32740
C304        C  0.14866566  0.01523248  0.36215848     0.36320
H305        H  0.19672090  0.43367658  0.38862066     0.16690
O306        O  0.14313214  0.42063368  0.44038015    -0.60230
H307        H  0.09620745  0.03392633  0.38912559     0.16700
O308        O  0.15140639  0.04726405  0.33831009    -0.60330
H309        H  0.13673257  0.04301773  0.31217115     0.43700
H310        H  0.13195201  0.40087427  0.42280146     0.43650
C311        C  0.31404091  0.48851572  0.37351644    -0.05410
C312        C  0.31286173  0.00282727  0.41587526    -0.32840
C313        C  0.34326722  0.99827170  0.44251324     0.36410
C314        C  0.37619017  0.48052542  0.42659079    -0.05770
C315        C  0.37778045  0.46621971  0.38445426    -0.32740
C316        C  0.34673893  0.46936952  0.35811335     0.36320
H317        H  0.28850043  0.01830813  0.42833598     0.16690
O318        O  0.34143823  0.01375482  0.48311806    -0.60230
H319        H  0.40317774  0.45279149  0.37189928     0.16700
O320        O  0.34821562  0.45244534  0.31820031    -0.60330
H321        H  0.36542022  0.46705486  0.30090522     0.43700
H322        H  0.33284637  0.99349850  0.50185032     0.43650
O323        O  0.41189129  0.96858640  0.48887182    -0.80080
O324        O  0.06210333  0.50795142  0.45365726    -0.80100
O325        O  0.48761867  0.55326736  0.43393720    -0.80110
O326        O  0.01034990  0.94552415  0.44007376    -0.80050
O327        O  0.02677311  0.57567240  0.47762813    -0.80180
O328        O  0.47051808  0.91822025  0.48248053    -0.80100
O329        O  0.08063320  0.94942037  0.46876426    -0.80080
O330        O  0.43365498  0.50435550  0.43825577    -0.80120
C331        C  0.40971509  0.98284394  0.45158712     1.09610
C332        C  0.08486018  0.47898999  0.44736789     1.09490
C333        C  0.50936772  0.57846677  0.44280020     1.09630
C334        C  0.98861216  0.91943458  0.44702173     1.09510
O335        O  0.49497394  0.94514168  0.56811023    -0.80080
O336        O  0.00877171  0.54950828  0.56090927    -0.80160
O337        O  0.41110714  0.53371557  0.52286772    -0.80090
O338        O  0.06347727  0.98514456  0.54405536    -0.80070
O339        O  0.07854322  0.54284348  0.52805588    -0.80130
O340        O  0.43983064  0.99724713  0.56921949    -0.80090
O341        O  0.03181935  0.91858627  0.52139732    -0.80050
O342        O  0.46773240  0.58081163  0.52142684    -0.80120
Co343      Co  0.45633370  0.95934849  0.52664427     1.51530
Co344      Co  0.03303448  0.52656259  0.50925599     1.51690
Co345      Co  0.45233407  0.54063475  0.47937840     1.51570
Co346      Co  0.03444623  0.96778852  0.48990929     1.51470
O347        O  0.48733624  0.99862436  0.50055148    -1.42020
C348        C  0.01633885  0.91764090  0.55779922     1.09540
C349        C  0.48692748  0.57805713  0.55557375     1.09630
C350        C  0.41250018  0.01844807  0.55978481     1.09560
C351        C  0.08443983  0.51318101  0.54967643     1.09540
C352        C  0.50052303  0.71568776  0.34277404     0.03190
C353        C  0.49882043  0.71481855  0.29769969    -0.12960
C354        C  0.49273718  0.74806392  0.27436453     0.00690
C355        C  0.48920933  0.78296327  0.29628218    -0.11490
C356        C  0.49205772  0.78441665  0.34136710     0.03180
C357        C  0.49763912  0.75074205  0.36437128    -0.10910
H358        H  0.50245674  0.68813280  0.28050880     0.08770
H359        H  0.48531644  0.80884880  0.27832561     0.06300
H360        H  0.49930205  0.75188408  0.39913711     0.06150
C361        C  0.28042607  0.99326871  0.34680057     0.03190
C362        C  0.24573511  0.98912047  0.36567025    -0.12960
C363        C  0.21350179  0.99326244  0.34152222     0.00690
C364        C  0.21598770  0.00089728  0.29754169    -0.11490
C365        C  0.25051132  0.00479109  0.27821396     0.03180
C366        C  0.28248161  0.00184505  0.30291970    -0.10910
H367        H  0.24375428  0.48209611  0.39940342     0.08770
H368        H  0.19142899  0.00211813  0.27806748     0.06300
H369        H  0.30882568  0.00555739  0.28751687     0.06150
C370        C  0.27884558  0.00953912  0.65934651     0.03190
C371        C  0.24619970  0.00855980  0.63599654    -0.12960
C372        C  0.21260137  0.00289396  0.65677847     0.00690
C373        C  0.21205692  0.99560889  0.70095095    -0.11490
C374        C  0.24466982  0.99564420  0.72444126     0.03180
C375        C  0.27785224  0.00306128  0.70378706    -0.10910
H376        H  0.24691789  0.51212345  0.60146003     0.08770
H377        H  0.18613317  0.99180603  0.71740805     0.06300
H378        H  0.30272683  0.00440440  0.72250502     0.06150
C379        C  0.49983518  0.71352109  0.65890940     0.03190
C380        C  0.50631901  0.74643152  0.63574616    -0.12960
C381        C  0.51390988  0.78021350  0.65715769     0.00690
C382        C  0.51514045  0.78062620  0.70233610    -0.11490
C383        C  0.50816404  0.74827519  0.72587061     0.03180
C384        C  0.50063998  0.71475978  0.70411273    -0.10910
H385        H  0.50506119  0.74577093  0.60100119     0.08770
H386        H  0.52078465  0.80643053  0.71940718     0.06300
H387        H  0.49520420  0.68977413  0.72235596     0.06150
C388        C  0.26189691  0.97071928  0.16396251     0.03190
C389        C  0.25900187  0.97136749  0.20887799    -0.12960
C390        C  0.25385420  0.00565240  0.23130669     0.00690
C391        C  0.25283499  0.53978573  0.20903597    -0.11490
C392        C  0.25682763  0.53938134  0.16410242     0.03180
C393        C  0.26088605  0.00484872  0.14185475    -0.10910
H394        H  0.26073701  0.94521211  0.22659553     0.08770
H395        H  0.24972912  0.56632725  0.22657780     0.06300
H396        H  0.26268529  0.00463021  0.10702534     0.06150
O397        O  0.27689641  0.83361659  0.02171724    -0.80080
O398        O  0.22526706  0.68615958  0.04627139    -0.80100
O399        O  0.18554516  0.76151681  0.06894322    -0.80110
O400        O  0.32904120  0.71807755  0.02260729    -0.80050
O401        O  0.16557512  0.72082229  0.02302028    -0.80180
O402        O  0.31209088  0.77354008  0.04591761    -0.80100
O403        O  0.27846917  0.66800650  0.02132098    -0.80080
O404        O  0.23770755  0.81299285  0.06815695    -0.80120
C405        C  0.26027224  0.83704214  0.05777034     1.09610
C406        C  0.25342802  0.66481263  0.04872632     1.09490
C407        C  0.16185340  0.73848345  0.05875405     1.09630
C408        C  0.33303191  0.74479369  0.04855447     1.09510
O409        O  0.32910311  0.79750277  0.96604462    -0.80080
O410        O  0.19833756  0.74090087  0.94045303    -0.80160
O411        O  0.21876068  0.83192116  0.98027601    -0.80090
O412        O  0.25296809  0.68888465  0.93667502    -0.80070
O413        O  0.20166590  0.66813045  0.96604114    -0.80130
O414        O  0.25788768  0.79839354  0.94005493    -0.80090
O415        O  0.31117478  0.74443881  0.93641956    -0.80050
O416        O  0.16661142  0.78087177  0.98141950    -0.80120
Co417      Co  0.28507793  0.78292990  0.99238515     1.51530
Co418      Co  0.21497959  0.71324634  0.99272922     1.51690
Co419      Co  0.20514302  0.79395648  0.02427400     1.51570
Co420      Co  0.28733316  0.71050917  0.98228621     1.51470
O421        O  0.24590969  0.75250003  0.01171604    -1.42020
C422        C  0.33465464  0.77076317  0.93888979     1.09540
C423        C  0.17028350  0.76293220  0.94605232     1.09630
C424        C  0.23587514  0.82682613  0.94476434     1.09560
C425        C  0.22811699  0.66400293  0.93902844     1.09540
C426        C  0.02751226  0.73462259  0.15999303     0.03190
C427        C  0.02640581  0.73917121  0.20489889    -0.12960
C428        C  0.49279768  0.74567996  0.22690082     0.00690
C429        C  0.45971722  0.74724327  0.20380903    -0.11490
C430        C  0.46024741  0.74212791  0.15877981     0.03180
C431        C  0.49433825  0.73596281  0.13736435    -0.10950
H432        H  0.05180359  0.73779196  0.22288131     0.08770
H433        H  0.43382774  0.75250759  0.22087556     0.06300
H434        H  0.49506369  0.73308337  0.10266804     0.06150
C435        C  0.23750329  0.95826169  0.83765774     0.03190
C436        C  0.24050015  0.95903949  0.79253240    -0.12960
C437        C  0.24315475  0.99359687  0.77144253     0.00690
C438        C  0.24290871  0.52724200  0.79518985    -0.11490
C439        C  0.23981713  0.52671054  0.83985936     0.03180
C440        C  0.23753587  0.99237188  0.86111868    -0.10910
H441        H  0.24018226  0.93307997  0.77391043     0.08770
H442        H  0.24427220  0.55396584  0.77879393     0.06300
H443        H  0.23559844  0.99231945  0.89592122     0.06150
C444        C  0.03889901  0.75836094  0.84140385     0.03190
C445        C  0.03979762  0.75380420  0.79640322    -0.12960
C446        C  0.50716237  0.75037248  0.77331997     0.00690
C447        C  0.47320052  0.75182629  0.79522508    -0.11490
C448        C  0.47149407  0.75679626  0.84008592     0.03180
C449        C  0.50451519  0.75957414  0.86292208    -0.10910
H450        H  0.06583822  0.75351471  0.77914136     0.08770
H451        H  0.44803800  0.75065537  0.77703981     0.06300
H452        H  0.50332975  0.76231700  0.89762378     0.06150
C453        C  0.23702051  0.56243573  0.86402215    -0.05410
C454        C  0.20226846  0.58027592  0.87173300    -0.32840
C455        C  0.19880777  0.61418066  0.89510442     0.36410
C456        C  0.23054008  0.63092928  0.91011451    -0.05770
C457        C  0.26538388  0.61348832  0.90110474    -0.32740
C458        C  0.26871101  0.57915711  0.87865058     0.36320
H459        H  0.17779340  0.56763441  0.85997823     0.16690
O460        O  0.16447174  0.63109355  0.90232277    -0.60230
H461        H  0.29001348  0.62571730  0.91303419     0.16700
O462        O  0.30293995  0.56204054  0.87132551    -0.60330
H463        H  0.30730484  0.54503906  0.89608159     0.43700
H464        H  0.15412173  0.61749329  0.92695870     0.43650
C465        C  0.23307325  0.85688353  0.91193324    -0.05410
C466        C  0.20637554  0.88667694  0.91782441    -0.32840
C467        C  0.20663466  0.91895506  0.89261343     0.36410
C468        C  0.23398762  0.92222175  0.86070493    -0.05770
C469        C  0.25924639  0.89154024  0.85270203    -0.32740
C470        C  0.25893965  0.85899854  0.87793655     0.36320
H471        H  0.18581085  0.88562877  0.94316788     0.16690
O472        O  0.18053800  0.94766338  0.90029749    -0.60230
H473        H  0.28036191  0.89349406  0.82813024     0.16700
O474        O  0.28556750  0.83071720  0.87082561    -0.60330
H475        H  0.27458588  0.81317130  0.85018241     0.43700
H476        H  0.16095203  0.94372259  0.87903559     0.43650
C477        C  0.42587356  0.74425104  0.13299954    -0.05410
C478        C  0.42512395  0.76528405  0.09492326    -0.32840
C479        C  0.39494627  0.76526974  0.06754755     0.36410
C480        C  0.36442962  0.74444781  0.07802543    -0.05770
C481        C  0.36451393  0.72376887  0.11619780    -0.32740
C482        C  0.39489498  0.72379008  0.14388900     0.36320
H483        H  0.44833452  0.78152704  0.08600215     0.16690
O484        O  0.39572894  0.78535847  0.03013575    -0.60230
H485        H  0.34113816  0.70750170  0.12441826     0.16700
O486        O  0.39486947  0.70214910  0.18016286    -0.60330
H487        H  0.37830930  0.71632563  0.20088804     0.43700
H488        H  0.40635586  0.76732878  0.00816691     0.43650
C489        C  0.06332869  0.73213529  0.13636167    -0.05410
C490        C  0.08972683  0.75798975  0.14664193    -0.32840
C491        C  0.12221283  0.75948844  0.12261487     0.36410
C492        C  0.12923000  0.73457839  0.08726214    -0.05770
C493        C  0.10349766  0.70755449  0.07802074    -0.32740
C494        C  0.07073971  0.70621923  0.10220311     0.36320
H495        H  0.08454737  0.77831512  0.17254191     0.16690
O496        O  0.14644006  0.78620262  0.13360571    -0.60230
H497        H  0.10842501  0.68777424  0.05154979     0.16700
O498        O  0.04659460  0.67892869  0.09298217    -0.60330
H499        H  0.03602297  0.68574270  0.06465058     0.43700
H500        H  0.13764262  0.80943337  0.11854317     0.43650
C501        C  0.36774279  0.76980800  0.90994517    -0.05410
C502        C  0.37454084  0.73939049  0.88100098    -0.32840
C503        C  0.40772806  0.73513672  0.85744342     0.36410
C504        C  0.43525424  0.76119628  0.86298783    -0.05770
C505        C  0.42815539  0.79207095  0.89098220    -0.32740
C506        C  0.39482766  0.79676480  0.91390745     0.36320
H507        H  0.35453528  0.71809173  0.87741882     0.16690
O508        O  0.41393091  0.70409563  0.83117826    -0.60230
H509        H  0.44869410  0.81276270  0.89519207     0.16700
O510        O  0.38981219  0.82718262  0.94130505    -0.60330
H511        H  0.37782122  0.84743714  0.92377022     0.43700
H512        H  0.39877374  0.70925765  0.80535610     0.43650
C513        C  0.13929892  0.76460139  0.91485589    -0.05410
C514        C  0.10928207  0.79066315  0.92226201    -0.32840
C515        C  0.07690293  0.78938878  0.89829065     0.36410
C516        C  0.07382860  0.76175316  0.86579279    -0.05770
C517        C  0.10448189  0.73687828  0.85683315    -0.32740
C518        C  0.13695703  0.73821906  0.88078605     0.36320
H519        H  0.11043075  0.81174525  0.94759614     0.16690
O520        O  0.04876882  0.81600773  0.90609402    -0.60230
H521        H  0.10290821  0.71547554  0.83192053     0.16700
O522        O  0.16542459  0.71234016  0.87184403    -0.60330
H523        H  0.18107079  0.72466305  0.85045460     0.43700
H524        H  0.03857710  0.80990501  0.93474421     0.43650
C525        C  0.25770158  0.57448110  0.13937854    -0.05410
C526        C  0.28715786  0.57876275  0.11080158    -0.32840
C527        C  0.28683941  0.60878931  0.08230990     0.36410
C528        C  0.25640493  0.63519609  0.08176091    -0.05770
C529        C  0.22758584  0.63175753  0.11177805    -0.32740
C530        C  0.22816490  0.60169593  0.14059285     0.36320
H531        H  0.31013524  0.55799328  0.10974948     0.16690
O532        O  0.31565711  0.61082165  0.05379742    -0.60230
H533        H  0.20395005  0.65170197  0.11207327     0.16700
O534        O  0.19855596  0.59759631  0.16746137    -0.60330
H535        H  0.20231994  0.61482450  0.19215064     0.43700
H536        H  0.33367855  0.62627500  0.06863881     0.43650
C537        C  0.26449442  0.93465652  0.13965812    -0.05410
C538        C  0.28958446  0.92966230  0.10509161    -0.32840
C539        C  0.28954340  0.89756213  0.07855701     0.36410
C540        C  0.26447100  0.86960835  0.08688436    -0.05770
C541        C  0.24056930  0.87402162  0.12264532    -0.32740
C542        C  0.24024890  0.90617169  0.14869203     0.36320
H543        H  0.30874393  0.95115596  0.09805193     0.16690
O544        O  0.31382988  0.89406665  0.04454858    -0.60230
H545        H  0.22074003  0.85317587  0.12969270     0.16700
O546        O  0.21403648  0.91083607  0.18064837    -0.60330
H547        H  0.22201363  0.89302850  0.20353760     0.43700
H548        H  0.30163826  0.90817165  0.02078308     0.43650
C549        C  0.51761616  0.81585099  0.63288518    -0.05410
C550        C  0.49818222  0.84884621  0.64746840    -0.32840
C551        C  0.49912137  0.88248629  0.62464690     0.36410
C552        C  0.51943522  0.88381238  0.58570861    -0.05770
C553        C  0.04001488  0.85117253  0.57184722    -0.32740
C554        C  0.03919769  0.81740012  0.59501887     0.36320
H555        H  0.48119833  0.84837952  0.67626271     0.16690
O556        O  0.47869939  0.91344541  0.64003887    -0.60230
H557        H  0.05613799  0.85148050  0.54238545     0.16700
O558        O  0.06032485  0.78638073  0.58104499    -0.60330
H559        H  0.04862250  0.77787669  0.55422077     0.43700
H560        H  0.49563712  0.92699436  0.65875802     0.43650
C561        C  0.48691605  0.61058590  0.58636622    -0.05410
C562        C  0.46366987  0.64282055  0.57897649    -0.32840
C563        C  0.46687704  0.67613242  0.60301523     0.36410
C564        C  0.49331520  0.67766181  0.63567929    -0.05770
C565        C  0.01510141  0.64494030  0.64484442    -0.32740
C566        C  0.01234659  0.61176232  0.62043457     0.36320
H567        H  0.44357878  0.64273516  0.55351239     0.16690
O568        O  0.44360382  0.70690573  0.59487246    -0.60230
H569        H  0.03550483  0.64554299  0.66994802     0.16700
O570        O  0.03536812  0.58106944  0.62962521    -0.60330
H571        H  0.05881788  0.58545228  0.61439631     0.43700
H572        H  0.45177748  0.71657735  0.56673581     0.43650
C573        C  0.49070648  0.82099930  0.36485477    -0.05410
C574        C  0.45680297  0.83816502  0.37836059    -0.32840
C575        C  0.45547600  0.87082646  0.40445593     0.36410
C576        C  0.48831385  0.88731303  0.41627093    -0.05770
C577        C  0.02210704  0.87073255  0.40144603    -0.32740
C578        C  0.02346729  0.83748108  0.37665469     0.36320
H579        H  0.43140181  0.82558879  0.36967768     0.16690
O580        O  0.42202398  0.88669395  0.41773898    -0.60230
H581        H  0.04768716  0.88264190  0.41079678     0.16700
O582        O  0.05699053  0.82090412  0.36464858    -0.60330
H583        H  0.06399867  0.80366268  0.38845632     0.43700
H584        H  0.41555505  0.87280102  0.44400694     0.43650
C585        C  0.51052026  0.61238236  0.41520894    -0.05410
C586        C  0.48497912  0.61672864  0.38175471    -0.32840
C587        C  0.48177047  0.64992483  0.35798558     0.36410
C588        C  0.50449831  0.67983466  0.36706631    -0.05770
C589        C  0.03061663  0.67543332  0.39991232    -0.32740
C590        C  0.03385907  0.64204071  0.42377844     0.36320
H591        H  0.46627803  0.59478681  0.37476368     0.16690
O592        O  0.45449744  0.65388177  0.32793310    -0.60230
H593        H  0.04852082  0.69802168  0.40716700     0.16700
O594        O  0.05920251  0.63925871  0.45608011    -0.60330
H595        H  0.08162675  0.62696471  0.44255178     0.43700
H596        H  0.46263147  0.63702487  0.30361638     0.43650
C597        C  0.11474091  0.01134023  0.58087613    -0.05410
C598        C  0.13908789  0.54080325  0.58167638    -0.32840
C599        C  0.17053555  0.53857125  0.60690129     0.36410
C600        C  0.17806094  0.00661843  0.63236096    -0.05770
C601        C  0.15292187  0.97801959  0.63360245    -0.32740
C602        C  0.12136509  0.98018093  0.60812195     0.36320
H603        H  0.13431965  0.56544299  0.56180349     0.16690
O604        O  0.19334659  0.56815321  0.60722839    -0.60230
H605        H  0.15831048  0.95346732  0.65345310     0.16700
O606        O  0.09791914  0.95121935  0.60929302    -0.60330
H607        H  0.07894552  0.95900901  0.63122316     0.43700
H608        H  0.20586794  0.56731552  0.57871967     0.43650
C609        C  0.38027274  0.02018369  0.58937880    -0.05410
C610        C  0.35044488  0.54590367  0.58218308    -0.32840
C611        C  0.31750517  0.54373657  0.60564621     0.36410
C612        C  0.31414531  0.01554607  0.63696666    -0.05770
C613        C  0.34462991  0.99121986  0.64565362    -0.32740
C614        C  0.37732679  0.99317758  0.62231065     0.36320
H615        H  0.35218460  0.56709615  0.55753099     0.16690
O616        O  0.28893837  0.56967355  0.59839860    -0.60230
H617        H  0.34264445  0.96930600  0.66944368     0.16700
O618        O  0.40564620  0.96734854  0.63100690    -0.60330
H619        H  0.40056739  0.94458730  0.61372601     0.43700
H620        H  0.28008553  0.56390345  0.56911445     0.43650
C621        C  0.17782580  0.98753325  0.36284584    -0.05410
C622        C  0.17450347  0.95539082  0.38805365    -0.32840
C623        C  0.14371134  0.95151534  0.41425243     0.36410
C624        C  0.11525835  0.98022207  0.41567671    -0.05770
C625        C  0.11779756  0.51155574  0.38868836    -0.32740
C626        C  0.14875134  0.51522107  0.36216725     0.36320
H627        H  0.19662935  0.93368202  0.38860203     0.16690
O628        O  0.14304015  0.92063831  0.44035957    -0.60230
H629        H  0.09629179  0.53391305  0.38913117     0.16700
O630        O  0.15149001  0.54725123  0.33831585    -0.60330
H631        H  0.13681333  0.54300377  0.31217943     0.43700
H632        H  0.13185660  0.90088228  0.42277909     0.43650
C633        C  0.31395327  0.98851306  0.37352103    -0.05410
C634        C  0.31294913  0.50282880  0.41587132    -0.32840
C635        C  0.34335407  0.49827216  0.44251003     0.36410
C636        C  0.37610311  0.98052464  0.42659377    -0.05770
C637        C  0.37769212  0.96621504  0.38445908    -0.32740
C638        C  0.34665013  0.96936383  0.35811903     0.36320
H639        H  0.28858743  0.51830857  0.42833265     0.16690
O640        O  0.34152422  0.51375373  0.48311563    -0.60230
H641        H  0.40308891  0.95278543  0.37190455     0.16700
O642        O  0.34812521  0.95243644  0.31820765    -0.60330
H643        H  0.36533223  0.96704190  0.30091119     0.43700
H644        H  0.33293183  0.49349676  0.50184660     0.43650
O645        O  0.91197401  0.46858962  0.48887390    -0.80080
O646        O  0.56201602  0.00795947  0.45364985    -0.80100
O647        O  0.98752559  0.05327978  0.43393964    -0.80110
O648        O  0.51043435  0.44551561  0.44008205    -0.80050
O649        O  0.52668549  0.07567606  0.47763100    -0.80180
O650        O  0.97059657  0.41822026  0.48248939    -0.80100
O651        O  0.58071791  0.44941141  0.46877418    -0.80080
O652        O  0.93356447  0.00436304  0.43825831    -0.80120
C653        C  0.90980156  0.48284208  0.45158626     1.09610
C654        C  0.58477363  0.97899912  0.44735804     1.09490
C655        C  0.00927991  0.07847429  0.44280369     1.09630
C656        C  0.48868975  0.41943184  0.44702982     1.09510
O657        O  0.99505424  0.44514435  0.56811640    -0.80080
O658        O  0.50868834  0.04950537  0.56090973    -0.80160
O659        O  0.91102191  0.03371319  0.52287368    -0.80090
O660        O  0.56356273  0.48514194  0.54406155    -0.80070
O661        O  0.57845855  0.04284588  0.52805193    -0.80130
O662        O  0.93991590  0.49725561  0.56921921    -0.80090
O663        O  0.53189847  0.41858140  0.52140799    -0.80050
O664        O  0.96764678  0.08081349  0.52143522    -0.80120
Co665      Co  0.95641538  0.45935151  0.52664924     1.51530
Co666      Co  0.53294908  0.02656468  0.50925273     1.51690
Co667      Co  0.95224580  0.04063923  0.47938354     1.51570
Co668      Co  0.53453094  0.46778227  0.48991668     1.51470
O669        O  0.98742202  0.49862192  0.50055423    -1.42020
C670        C  0.51641286  0.41763807  0.55780727     1.09540
C671        C  0.98684709  0.07805711  0.55557816     1.09630
C672        C  0.91258535  0.51845510  0.55978156     1.09560
C673        C  0.58435430  0.01318302  0.54967198     1.09540
C674        C  0.00049307  0.21569296  0.34277220     0.03190
C675        C  0.99879187  0.21482377  0.29769777    -0.12960
C676        C  0.99273292  0.24807190  0.27436139     0.00690
C677        C  0.98922754  0.28297289  0.29627760    -0.11490
C678        C  0.99207150  0.28442482  0.34136284     0.03180
C679        C  0.99762898  0.25074822  0.36436834    -0.10910
H680        H  0.00241227  0.18813628  0.28050780     0.08770
H681        H  0.98535299  0.30885986  0.27831999     0.06300
H682        H  0.99928977  0.25188976  0.39913437     0.06150
C683        C  0.78051150  0.49326643  0.34679844     0.03190
C684        C  0.74582281  0.48911422  0.36567258    -0.12960
C685        C  0.71358698  0.49325295  0.34152899     0.00690
C686        C  0.71606776  0.50088734  0.29754823    -0.11490
C687        C  0.75058857  0.50478422  0.27821531     0.03180
C688        C  0.78256193  0.50184159  0.30291649    -0.10910
H689        H  0.74366291  0.98210195  0.39940069     0.08770
H690        H  0.69150692  0.50210612  0.27807762     0.06300
H691        H  0.80890385  0.50555643  0.28750977     0.06150
C692        C  0.77893375  0.50955518  0.65934978     0.03190
C693        C  0.74628849  0.50857451  0.63599886    -0.12960
C694        C  0.71269074  0.50290265  0.65677908     0.00690
C695        C  0.71214662  0.49561379  0.70095066    -0.11490
C696        C  0.74475875  0.49565149  0.72444226     0.03180
C697        C  0.77794050  0.50307434  0.70378989    -0.10910
H698        H  0.74682873  0.01210660  0.60145741     0.08770
H699        H  0.68622325  0.49180607  0.71740647     0.06300
H700        H  0.80281474  0.50441797  0.72250839     0.06150
C701        C  0.99981392  0.21351984  0.65890188     0.03190
C702        C  0.00631085  0.24642718  0.63573844    -0.12960
C703        C  0.01391694  0.28020479  0.65715034     0.00690
C704        C  0.01515007  0.28061587  0.70232865    -0.11490
C705        C  0.00816069  0.24826843  0.72586324     0.03180
C706        C  0.00062076  0.21475780  0.70410522    -0.10910
H707        H  0.00505185  0.24576778  0.60099350     0.08770
H708        H  0.02080587  0.30641687  0.71939968     0.06300
H709        H  0.99517482  0.18977496  0.72234854     0.06150
C710        C  0.76194248  0.47071655  0.16395889     0.03190
C711        C  0.75906290  0.47136300  0.20887554    -0.12960
C712        C  0.75392363  0.50564731  0.23130734     0.00690
C713        C  0.75277411  0.03978995  0.20903423    -0.11490
C714        C  0.75678224  0.03938422  0.16410233     0.03180
C715        C  0.76092418  0.50484668  0.14185249    -0.10910
H716        H  0.76080202  0.44520673  0.22659125     0.08770
H717        H  0.74966409  0.06633194  0.22657460     0.06300
H718        H  0.76271171  0.50462938  0.10702237     0.06150
O719        O  0.77690190  0.33361657  0.02170599    -0.80080
O720        O  0.72525720  0.18616824  0.04627187    -0.80100
O721        O  0.68553981  0.26153356  0.06893536    -0.80110
O722        O  0.82903534  0.21807376  0.02260963    -0.80050
O723        O  0.66557043  0.22083526  0.02301614    -0.80180
O724        O  0.81208902  0.27353889  0.04591492    -0.80100
O725        O  0.77845858  0.16800709  0.02132624    -0.80080
O726        O  0.73770690  0.31300410  0.06814576    -0.80120
C727        C  0.76027766  0.33704723  0.05775857     1.09610
C728        C  0.75341523  0.16481756  0.04872981     1.09490
C729        C  0.66184887  0.23849855  0.05874854     1.09630
C730        C  0.83302810  0.24479135  0.04855432     1.09510
O731        O  0.82910624  0.29749352  0.96604050    -0.80080
O732        O  0.69833731  0.24090460  0.94044733    -0.80160
O733        O  0.71876771  0.33192481  0.98026019    -0.80090
O734        O  0.75296323  0.18887787  0.93667572    -0.80070
O735        O  0.70165497  0.16813765  0.96604344    -0.80130
O736        O  0.75789288  0.29838762  0.94004685    -0.80090
O737        O  0.81117571  0.24442908  0.93641826    -0.80050
O738        O  0.66661221  0.28088063  0.98140820    -0.80120
Co739      Co  0.78507914  0.28292665  0.99238027     1.51530
Co740      Co  0.71497481  0.21325224  0.99272708     1.51690
Co741      Co  0.70514340  0.29396606  0.02426257     1.51570
Co742      Co  0.78732748  0.21050606  0.98228760     1.51470
O743        O  0.74590693  0.25250363  0.01171252    -1.42020
C744        C  0.83465636  0.27075301  0.93888674     1.09540
C745        C  0.67028400  0.26293767  0.94604326     1.09630
C746        C  0.73588552  0.32682468  0.94475130     1.09560
C747        C  0.72810373  0.16400445  0.93902861     1.09540
C748        C  0.52751055  0.23463276  0.15999107     0.03190
C749        C  0.52640354  0.23918270  0.20489680    -0.12960
C750        C  0.99279475  0.24568764  0.22689807     0.00690
C751        C  0.95971442  0.24724626  0.20380623    -0.11490
C752        C  0.96024526  0.24213109  0.15877712     0.03180
C753        C  0.99433664  0.23596938  0.13736206    -0.10950
H754        H  0.55180112  0.23780637  0.22287962     0.08770
H755        H  0.93382453  0.25250790  0.22087266     0.06300
H756        H  0.99506249  0.23308959  0.10266579     0.06150
C757        C  0.73756473  0.45826075  0.83765247     0.03190
C758        C  0.74057577  0.45904135  0.79252834    -0.12960
C759        C  0.74324156  0.49359971  0.77144333     0.00690
C760        C  0.74282408  0.02724116  0.79518508    -0.11490
C761        C  0.73974859  0.02671244  0.83985597     0.03180
C762        C  0.73759326  0.49236909  0.86111722    -0.10910
H763        H  0.74025814  0.43308353  0.77390321     0.08770
H764        H  0.74418181  0.05396391  0.77878564     0.06300
H765        H  0.73564245  0.49231471  0.89591886     0.06150
C766        C  0.53889903  0.25835622  0.84139584     0.03190
C767        C  0.53979652  0.25380024  0.79639499    -0.12960
C768        C  0.00716088  0.25036541  0.77331292     0.00690
C769        C  0.97319983  0.25181570  0.79521962    -0.11490
C770        C  0.97149438  0.25678582  0.84008038     0.03180
C771        C  0.00451581  0.25956614  0.86291529    -0.10910
H772        H  0.56583649  0.25351342  0.77913208     0.08770
H773        H  0.94803687  0.25064282  0.77703550     0.06300
H774        H  0.00333099  0.26230872  0.89761703     0.06150
C775        C  0.73696598  0.06243899  0.86401693    -0.05410
C776        C  0.70222049  0.08029346  0.87172842    -0.32840
C777        C  0.69877366  0.11419814  0.89510128     0.36410
C778        C  0.73051366  0.13093297  0.91011092    -0.05770
C779        C  0.76535109  0.11347845  0.90109900    -0.32740
C780        C  0.76866412  0.07914676  0.87864450     0.36320
H781        H  0.67773962  0.06766244  0.85997459     0.16690
O782        O  0.66444352  0.13112382  0.90232280    -0.60230
H783        H  0.78998630  0.12569667  0.91302791     0.16700
O784        O  0.80288690  0.06201658  0.87131774    -0.60330
H785        H  0.80724624  0.04501383  0.89607381     0.43700
H786        H  0.65408917  0.11752646  0.92695832     0.43650
C787        C  0.73309580  0.35688137  0.91191873    -0.05410
C788        C  0.70639924  0.38667728  0.91779883    -0.32840
C789        C  0.70667070  0.41895575  0.89258945     0.36410
C790        C  0.73403548  0.42222024  0.86069429    -0.05770
C791        C  0.75929332  0.39153617  0.85270134    -0.32740
C792        C  0.75897407  0.35899412  0.87793393     0.36320
H793        H  0.68582601  0.38563078  0.94313303     0.16690
O794        O  0.68057464  0.44766677  0.90026273    -0.60230
H795        H  0.78041784  0.39348836  0.82813989     0.16700
O796        O  0.78560189  0.33071061  0.87083464    -0.60330
H797        H  0.77462621  0.31316635  0.85018481     0.43700
H798        H  0.66099657  0.44373011  0.87898955     0.43650
C799        C  0.92587141  0.24425156  0.13299678    -0.05410
C800        C  0.92512038  0.26528447  0.09492045    -0.32840
C801        C  0.89494224  0.26526904  0.06754557     0.36410
C802        C  0.86442651  0.24444598  0.07802426    -0.05770
C803        C  0.86451238  0.22376683  0.11619648    -0.32740
C804        C  0.89489387  0.22378928  0.14388697     0.36320
H805        H  0.94833003  0.28152858  0.08599883     0.16690
O806        O  0.89572356  0.28535784  0.03013373    -0.60230
H807        H  0.84113734  0.20749882  0.12441760     0.16700
O808        O  0.89486970  0.20214846  0.18016100    -0.60330
H809        H  0.87830851  0.21632395  0.20088599     0.43700
H810        H  0.90635129  0.26732865  0.00816485     0.43650
C811        C  0.56332699  0.23214666  0.13635984    -0.05410
C812        C  0.58972414  0.25800254  0.14663904    -0.32840
C813        C  0.62220955  0.25950244  0.12261097     0.36410
C814        C  0.62922675  0.23459248  0.08725822    -0.05770
C815        C  0.60349588  0.20756671  0.07801861    -0.32740
C816        C  0.57073877  0.20623001  0.10220206     0.36320
H817        H  0.58454427  0.27832803  0.17253881     0.16690
O818        O  0.64643619  0.28621743  0.13360095    -0.60230
H819        H  0.60842364  0.18778604  0.05154813     0.16700
O820        O  0.54659521  0.17893755  0.09298289    -0.60330
H821        H  0.53602325  0.18574952  0.06465086     0.43700
H822        H  0.63763742  0.30944805  0.11853909     0.43650
C823        C  0.86774405  0.26979694  0.90994140    -0.05410
C824        C  0.87454254  0.23937819  0.88099907    -0.32840
C825        C  0.90772953  0.23512441  0.85744096     0.36410
C826        C  0.93525500  0.26118510  0.86298325    -0.05770
C827        C  0.92815559  0.29206099  0.89097563    -0.32740
C828        C  0.89482809  0.29675498  0.91390111     0.36320
H829        H  0.85453752  0.21807867  0.87741875     0.16690
O830        O  0.91393281  0.20408252  0.83117716    -0.60230
H831        H  0.94869361  0.31275375  0.89518352     0.16700
O832        O  0.88981198  0.32717448  0.94129622    -0.60330
H833        H  0.87781929  0.34742715  0.92376018     0.43700
H834        H  0.89877535  0.20924330  0.80535495     0.43650
C835        C  0.63929937  0.26460494  0.91484655    -0.05410
C836        C  0.60927985  0.29066308  0.92225449    -0.32840
C837        C  0.57690076  0.28938623  0.89828341     0.36410
C838        C  0.57382890  0.26175161  0.86578388    -0.05770
C839        C  0.60448487  0.23688078  0.85682208    -0.32740
C840        C  0.63696012  0.23822427  0.88077460     0.36320
H841        H  0.61042629  0.31174415  0.94759003     0.16690
O842        O  0.54876416  0.31600197  0.90608879    -0.60230
H843        H  0.60291340  0.21547910  0.83190792     0.16700
O844        O  0.66543098  0.21235014  0.87182931    -0.60330
H845        H  0.68107551  0.22467768  0.85044196     0.43700
H846        H  0.53857428  0.30989760  0.93473937     0.43650
C847        C  0.75766428  0.07448374  0.13937879    -0.05410
C848        C  0.78712666  0.07876351  0.11080975    -0.32840
C849        C  0.78681673  0.10879133  0.08231999     0.36410
C850        C  0.75638493  0.13520112  0.08176494    -0.05770
C851        C  0.72756003  0.13176460  0.11177477    -0.32740
C852        C  0.72813040  0.10170190  0.14058754     0.36320
H853        H  0.81010240  0.05799201  0.10976252     0.16690
O854        O  0.81564018  0.11082222  0.05381525    -0.60230
H855        H  0.70392603  0.15171128  0.11206520     0.16700
O856        O  0.69851570  0.09760454  0.16744796    -0.60330
H857        H  0.70227419  0.11483497  0.19213670     0.43700
H858        H  0.83365935  0.12627484  0.06866164     0.43650
C859        C  0.76453039  0.43465512  0.13965193    -0.05410
C860        C  0.78961066  0.42966098  0.10507595    -0.32840
C861        C  0.78955936  0.39756301  0.07853903     0.36410
C862        C  0.76448612  0.36961140  0.08687305    -0.05770
C863        C  0.74059403  0.37402466  0.12264281    -0.32740
C864        C  0.74028414  0.40617256  0.14869237     0.36320
H865        H  0.80877019  0.45115328  0.09803079     0.16690
O866        O  0.81383635  0.39406803  0.04452139    -0.60230
H867        H  0.72076462  0.35318047  0.12969589     0.16700
O868        O  0.71408100  0.41083742  0.18065897    -0.60330
H869        H  0.72206405  0.39302884  0.20354466     0.43700
H870        H  0.80163841  0.40817435  0.02076104     0.43650
C871        C  0.01763771  0.31584108  0.63287950    -0.05410
C872        C  0.99821570  0.34884286  0.64746376    -0.32840
C873        C  0.99917194  0.38248415  0.62464695     0.36410
C874        C  0.01949191  0.38380552  0.58571245    -0.05770
C875        C  0.54005865  0.35115794  0.57184933    -0.32740
C876        C  0.53922381  0.31738400  0.59501616     0.36320
H877        H  0.98122851  0.34838099  0.67625583     0.16690
O878        O  0.97876073  0.41345002  0.64003985    -0.60230
H879        H  0.55618523  0.35146146  0.54238985     0.16700
O880        O  0.56033864  0.28635674  0.58104082    -0.60330
H881        H  0.54863183  0.27785861  0.55421689     0.43700
H882        H  0.99570209  0.42698890  0.65876425     0.43650
C883        C  0.98684866  0.11058728  0.58636821    -0.05410
C884        C  0.96361482  0.14283080  0.57897710    -0.32840
C885        C  0.96683750  0.17614269  0.60301184     0.36410
C886        C  0.99327903  0.17766330  0.63567315    -0.05770
C887        C  0.51505286  0.14493380  0.64483948    -0.32740
C888        C  0.51228272  0.11175583  0.62043377     0.36320
H889        H  0.94352192  0.14275212  0.55351464     0.16690
O890        O  0.94357587  0.20692467  0.59486814    -0.60230
H891        H  0.53545849  0.14552944  0.66994117     0.16700
O892        O  0.53529289  0.08105462  0.62962593    -0.60330
H893        H  0.55874571  0.08542854  0.61439909     0.43700
H894        H  0.95175382  0.21659215  0.56673128     0.43650
C895        C  0.99073723  0.32100677  0.36485054    -0.05410
C896        C  0.95684159  0.33817846  0.37837383    -0.32840
C897        C  0.95553038  0.37083729  0.40447230     0.36410
C898        C  0.98837623  0.38731487  0.41627439    -0.05770
C899        C  0.52216153  0.37072875  0.40143197    -0.32740
C900        C  0.52350622  0.33747982  0.37663637     0.36320
H901        H  0.93143440  0.32560867  0.36970210     0.16690
O902        O  0.92208550  0.38671074  0.41777198    -0.60230
H903        H  0.54774769  0.38263099  0.41077268     0.16700
O904        O  0.55702229  0.32089557  0.36461450    -0.60330
H905        H  0.56403195  0.30364719  0.38841529     0.43700
H906        H  0.91562033  0.37281401  0.44403858     0.43650
C907        C  0.01044315  0.11238854  0.41521216    -0.05410
C908        C  0.98490166  0.11674574  0.38175966    -0.32840
C909        C  0.98170774  0.14994175  0.35798839     0.36410
C910        C  0.00445054  0.17983989  0.36706625    -0.05770
C911        C  0.53056840  0.17542733  0.39991107    -0.32740
C912        C  0.53379636  0.14203524  0.42377873     0.36320
H913        H  0.96619000  0.09481295  0.37477123     0.16690
O914        O  0.95443565  0.15391065  0.32793618    -0.60230
H915        H  0.54848409  0.19800643  0.40716326     0.16700
O916        O  0.55914093  0.13924231  0.45607849    -0.60330
H917        H  0.58155926  0.12693686  0.44254919     0.43700
H918        H  0.96256224  0.13704971  0.30362003     0.43650
C919        C  0.61482804  0.51133985  0.58087889    -0.05410
C920        C  0.63900310  0.04080139  0.58167433    -0.32840
C921        C  0.67044981  0.03856675  0.60690070     0.36410
C922        C  0.67815025  0.50662330  0.63236096    -0.05770
C923        C  0.65301396  0.47802174  0.63360256    -0.32740
C924        C  0.62145619  0.48018047  0.60812345     0.36320
H925        H  0.63423764  0.06544104  0.56180061     0.16690
O926        O  0.69326383  0.06814621  0.60722811    -0.60230
H927        H  0.65840530  0.45346957  0.65345257     0.16700
O928        O  0.59801309  0.45121645  0.60929480    -0.60330
H929        H  0.57904020  0.45900340  0.63122684     0.43700
H930        H  0.70578562  0.06730712  0.57871965     0.43650
C931        C  0.88035836  0.52019283  0.58937601    -0.05410
C932        C  0.85035676  0.04589048  0.58218198    -0.32840
C933        C  0.81741591  0.04372009  0.60564180     0.36410
C934        C  0.81423343  0.51556167  0.63696989    -0.05770
C935        C  0.84471562  0.49123108  0.64565238    -0.32740
C936        C  0.87741102  0.49318528  0.62230618     0.36320
H937        H  0.85209529  0.06708222  0.55752890     0.16690
O938        O  0.78884699  0.06965356  0.59839006    -0.60230
H939        H  0.84272884  0.46931596  0.66944073     0.16700
O940        O  0.90572703  0.46735060  0.63099675    -0.60330
H941        H  0.90064437  0.44459298  0.61371151     0.43700
H942        H  0.77999752  0.06388165  0.56910489     0.43650
C943        C  0.67791315  0.48752385  0.36285741    -0.05410
C944        C  0.67459354  0.45538364  0.38806978    -0.32840
C945        C  0.64380142  0.45150805  0.41426877     0.36410
C946        C  0.61534610  0.48021234  0.41568845    -0.05770
C947        C  0.61771161  0.01156740  0.38867972    -0.32740
C948        C  0.64866566  0.01523248  0.36215848     0.36320
H949        H  0.69672088  0.43367654  0.38862064     0.16690
O950        O  0.64313212  0.42063365  0.44038012    -0.60230
H951        H  0.59620745  0.03392634  0.38912559     0.16700
O952        O  0.65140638  0.04726406  0.33831009    -0.60330
H953        H  0.63673256  0.04301774  0.31217116     0.43700
H954        H  0.63195197  0.40087424  0.42280143     0.43650
C955        C  0.81404092  0.48851567  0.37351645    -0.05410
C956        C  0.81286173  0.00282728  0.41587526    -0.32840
C957        C  0.84326721  0.99827172  0.44251324     0.36410
C958        C  0.87619017  0.48052539  0.42659081    -0.05770
C959        C  0.87778046  0.46621968  0.38445427    -0.32740
C960        C  0.84673894  0.46936949  0.35811337     0.36320
H961        H  0.78850042  0.01830814  0.42833598     0.16690
O962        O  0.84143823  0.01375483  0.48311806    -0.60230
H963        H  0.90317776  0.45279148  0.37189929     0.16700
O964        O  0.84821564  0.45244532  0.31820032    -0.60330
H965        H  0.86542023  0.46705485  0.30090523     0.43700
H966        H  0.83284637  0.99349850  0.50185032     0.43650
O967        O  0.91189128  0.96858641  0.48887181    -0.80080
O968        O  0.56210334  0.50795141  0.45365725    -0.80100
O969        O  0.98761866  0.55326736  0.43393721    -0.80110
O970        O  0.51034991  0.94552415  0.44007376    -0.80050
O971        O  0.52677312  0.57567240  0.47762813    -0.80180
O972        O  0.97051807  0.91822026  0.48248053    -0.80100
O973        O  0.58063321  0.94942037  0.46876426    -0.80080
O974        O  0.93365498  0.50435549  0.43825578    -0.80120
C975        C  0.90971509  0.98284395  0.45158712     1.09610
C976        C  0.58486019  0.47898998  0.44736788     1.09490
C977        C  0.00936771  0.57846677  0.44280021     1.09630
C978        C  0.48861216  0.91943458  0.44702173     1.09510
O979        O  0.99497393  0.94514168  0.56811023    -0.80080
O980        O  0.50877172  0.54950828  0.56090926    -0.80160
O981        O  0.91110714  0.53371557  0.52286773    -0.80090
O982        O  0.56347727  0.98514456  0.54405536    -0.80070
O983        O  0.57854323  0.54284347  0.52805587    -0.80130
O984        O  0.93983064  0.99724714  0.56921948    -0.80090
O985        O  0.53181935  0.91858626  0.52139732    -0.80050
O986        O  0.96773239  0.58081163  0.52142684    -0.80120
Co987      Co  0.95633369  0.95934850  0.52664426     1.51530
Co988      Co  0.53303448  0.52656258  0.50925598     1.51690
Co989      Co  0.95233406  0.54063475  0.47937841     1.51570
Co990      Co  0.53444623  0.96778851  0.48990929     1.51470
O991        O  0.98733623  0.99862437  0.50055148    -1.42020
C992        C  0.51633886  0.91764089  0.55779922     1.09540
C993        C  0.98692747  0.57805713  0.55557375     1.09630
C994        C  0.91250017  0.01844807  0.55978481     1.09560
C995        C  0.58443983  0.51318100  0.54967643     1.09540
C996        C  0.00052304  0.71568775  0.34277404     0.03190
C997        C  0.99882045  0.71481855  0.29769969    -0.12960
C998        C  0.99273720  0.74806392  0.27436453     0.00690
C999        C  0.98920935  0.78296326  0.29628219    -0.11490
C1000       C  0.99205773  0.78441664  0.34136710     0.03180
C1001       C  0.99763913  0.75074204  0.36437128    -0.10910
H1002       H  0.00245676  0.68813280  0.28050880     0.08770
H1003       H  0.98531645  0.80884880  0.27832561     0.06300
H1004       H  0.99930206  0.75188408  0.39913711     0.06150
C1005       C  0.78042606  0.99326873  0.34680057     0.03190
C1006       C  0.74573510  0.98912049  0.36567025    -0.12960
C1007       C  0.71350179  0.99326246  0.34152221     0.00690
C1008       C  0.71598770  0.00089729  0.29754168    -0.11490
C1009       C  0.75051131  0.00479111  0.27821396     0.03180
C1010       C  0.78248161  0.00184507  0.30291969    -0.10910
H1011       H  0.74375428  0.48209605  0.39940342     0.08770
H1012       H  0.69142898  0.00211814  0.27806748     0.06300
H1013       H  0.80882568  0.00555742  0.28751686     0.06150
C1014       C  0.77884558  0.00953911  0.65934652     0.03190
C1015       C  0.74619970  0.00855979  0.63599655    -0.12960
C1016       C  0.71260138  0.00289395  0.65677848     0.00690
C1017       C  0.71205692  0.99560887  0.70095096    -0.11490
C1018       C  0.74466982  0.99564419  0.72444127     0.03180
C1019       C  0.77785225  0.00306127  0.70378707    -0.10910
H1020       H  0.74691789  0.51212344  0.60146003     0.08770
H1021       H  0.68613318  0.99180602  0.71740806     0.06300
H1022       H  0.80272683  0.00440440  0.72250503     0.06150
C1023       C  0.99983515  0.71352110  0.65890940     0.03190
C1024       C  0.00631898  0.74643152  0.63574616    -0.12960
C1025       C  0.01390986  0.78021351  0.65715768     0.00690
C1026       C  0.01514043  0.78062621  0.70233610    -0.11490
C1027       C  0.00816402  0.74827519  0.72587061     0.03180
C1028       C  0.00063996  0.71475979  0.70411273    -0.10910
H1029       H  0.00506116  0.74577093  0.60100119     0.08770
H1030       H  0.02078463  0.80643054  0.71940718     0.06300
H1031       H  0.99520417  0.68977414  0.72235597     0.06150
C1032       C  0.76189690  0.97071930  0.16396251     0.03190
C1033       C  0.75900187  0.97136751  0.20887799    -0.12960
C1034       C  0.75385419  0.00565242  0.23130669     0.00690
C1035       C  0.75283501  0.53978572  0.20903598    -0.11490
C1036       C  0.75682765  0.53938134  0.16410244     0.03180
C1037       C  0.76088605  0.00484873  0.14185475    -0.10910
H1038       H  0.76073700  0.94521213  0.22659553     0.08770
H1039       H  0.74972914  0.56632724  0.22657782     0.06300
H1040       H  0.76268529  0.00463022  0.10702534     0.06150
O1041       O  0.77689640  0.83361660  0.02171726    -0.80080
O1042       O  0.72526707  0.68615958  0.04627142    -0.80100
O1043       O  0.68554516  0.76151681  0.06894324    -0.80110
O1044       O  0.82904120  0.71807756  0.02260731    -0.80050
O1045       O  0.66557513  0.72082228  0.02302030    -0.80180
O1046       O  0.81209088  0.77354009  0.04591763    -0.80100
O1047       O  0.77846918  0.66800650  0.02132101    -0.80080
O1048       O  0.73770755  0.81299286  0.06815697    -0.80120
C1049       C  0.76027224  0.83704215  0.05777036     1.09610
C1050       C  0.75342803  0.66481263  0.04872635     1.09490
C1051       C  0.66185341  0.73848345  0.05875408     1.09630
C1052       C  0.83303192  0.74479370  0.04855449     1.09510
O1053       O  0.82910311  0.79750278  0.96604463    -0.80080
O1054       O  0.69833757  0.74090087  0.94045306    -0.80160
O1055       O  0.71876067  0.83192116  0.98027603    -0.80090
O1056       O  0.75296809  0.68888465  0.93667505    -0.80070
O1057       O  0.70166591  0.66813045  0.96604117    -0.80130
O1058       O  0.75788767  0.79839354  0.94005494    -0.80090
O1059       O  0.81117478  0.74443882  0.93641958    -0.80050
O1060       O  0.66661142  0.78087176  0.98141952    -0.80120
Co1061     Co  0.78507793  0.78292990  0.99238517     1.51530
Co1062     Co  0.71497959  0.71324633  0.99272925     1.51690
Co1063     Co  0.70514302  0.79395648  0.02427401     1.51570
Co1064     Co  0.78733316  0.71050918  0.98228624     1.51470
O1065       O  0.74590969  0.75250004  0.01171606    -1.42020
C1066       C  0.83465463  0.77076318  0.93888980     1.09540
C1067       C  0.67028350  0.76293219  0.94605234     1.09630
C1068       C  0.73587514  0.82682613  0.94476435     1.09560
C1069       C  0.72811699  0.66400293  0.93902847     1.09540
C1070       C  0.52751226  0.73462258  0.15999304     0.03190
C1071       C  0.52640580  0.73917121  0.20489890    -0.12960
C1072       C  0.99279769  0.74567996  0.22690082     0.00690
C1073       C  0.95971723  0.74724328  0.20380904    -0.11490
C1074       C  0.96024741  0.74212792  0.15877981     0.03180
C1075       C  0.99433825  0.73596282  0.13736435    -0.10950
H1076       H  0.55180358  0.73779196  0.22288131     0.08770
H1077       H  0.93382775  0.75250759  0.22087557     0.06300
H1078       H  0.99506369  0.73308338  0.10266804     0.06150
C1079       C  0.73750329  0.95826168  0.83765775     0.03190
C1080       C  0.74050015  0.95903948  0.79253241    -0.12960
C1081       C  0.74315476  0.99359686  0.77144254     0.00690
C1082       C  0.74290871  0.52724201  0.79518985    -0.11490
C1083       C  0.73981714  0.52671055  0.83985936     0.03180
C1084       C  0.73753586  0.99237188  0.86111868    -0.10910
H1085       H  0.74018226  0.93307996  0.77391043     0.08770
H1086       H  0.74427220  0.55396585  0.77879393     0.06300
H1087       H  0.73559843  0.99231945  0.89592122     0.06150
C1088       C  0.53889902  0.75836093  0.84140386     0.03190
C1089       C  0.53979763  0.75380419  0.79640323    -0.12960
C1090       C  0.00716235  0.75037249  0.77331997     0.00690
C1091       C  0.97320051  0.75182630  0.79522508    -0.11490
C1092       C  0.97149406  0.75679627  0.84008592     0.03180
C1093       C  0.00451518  0.75957415  0.86292208    -0.10910
H1094       H  0.56583824  0.75351470  0.77914137     0.08770
H1095       H  0.94803799  0.75065537  0.77703982     0.06300
H1096       H  0.00332975  0.76231701  0.89762378     0.06150
C1097       C  0.73702051  0.56243574  0.86402216    -0.05410
C1098       C  0.70226846  0.58027592  0.87173303    -0.32840
C1099       C  0.69880778  0.61418066  0.89510445     0.36410
C1100       C  0.73054008  0.63092929  0.91011453    -0.05770
C1101       C  0.76538389  0.61348834  0.90110473    -0.32740
C1102       C  0.76871102  0.57915713  0.87865056     0.36320
H1103       H  0.67779340  0.56763440  0.85997827     0.16690
O1104       O  0.66447174  0.63109354  0.90232283    -0.60230
H1105       H  0.79001349  0.62571732  0.91303417     0.16700
O1106       O  0.80293996  0.56204057  0.87132547    -0.60330
H1107       H  0.80730487  0.54503909  0.89608155     0.43700
H1108       H  0.65412174  0.61749327  0.92695876     0.43650
C1109       C  0.73307324  0.85688352  0.91193326    -0.05410
C1110       C  0.70637554  0.88667694  0.91782442    -0.32840
C1111       C  0.70663466  0.91895506  0.89261344     0.36410
C1112       C  0.73398762  0.92222174  0.86070493    -0.05770
C1113       C  0.75924638  0.89154023  0.85270204    -0.32740
C1114       C  0.75893964  0.85899853  0.87793656     0.36320
H1115       H  0.68581084  0.88562878  0.94316790     0.16690
O1116       O  0.68053800  0.94766338  0.90029750    -0.60230
H1117       H  0.78036190  0.89349406  0.82813025     0.16700
O1118       O  0.78556749  0.83071720  0.87082563    -0.60330
H1119       H  0.77458586  0.81317129  0.85018242     0.43700
H1120       H  0.66095203  0.94372259  0.87903560     0.43650
C1121       C  0.92587356  0.74425105  0.13299955    -0.05410
C1122       C  0.92512395  0.76528408  0.09492328    -0.32840
C1123       C  0.89494626  0.76526977  0.06754758     0.36410
C1124       C  0.86442962  0.74444783  0.07802545    -0.05770
C1125       C  0.86451395  0.72376887  0.11619780    -0.32740
C1126       C  0.89489500  0.72379007  0.14388901     0.36320
H1127       H  0.94833451  0.78152708  0.08600218     0.16690
O1128       O  0.89572892  0.78535852  0.03013579    -0.60230
H1129       H  0.84113818  0.70750168  0.12441825     0.16700
O1130       O  0.89486949  0.70214907  0.18016285    -0.60330
H1131       H  0.87830933  0.71632559  0.20088804     0.43700
H1132       H  0.90635584  0.76732884  0.00816694     0.43650
C1133       C  0.56332868  0.73213529  0.13636168    -0.05410
C1134       C  0.58972682  0.75798974  0.14664194    -0.32840
C1135       C  0.62221283  0.75948844  0.12261489     0.36410
C1136       C  0.62923000  0.73457838  0.08726216    -0.05770
C1137       C  0.60349767  0.70755449  0.07802076    -0.32740
C1138       C  0.57073971  0.70621922  0.10220313     0.36320
H1139       H  0.58454736  0.77831511  0.17254193     0.16690
O1140       O  0.64644005  0.78620261  0.13360574    -0.60230
H1141       H  0.60842501  0.68777423  0.05154981     0.16700
O1142       O  0.54659460  0.67892868  0.09298218    -0.60330
H1143       H  0.53602298  0.68574269  0.06465058     0.43700
H1144       H  0.63764262  0.80943336  0.11854319     0.43650
C1145       C  0.86774279  0.76980800  0.90994518    -0.05410
C1146       C  0.87454084  0.73939049  0.88100100    -0.32840
C1147       C  0.90772806  0.73513672  0.85744344     0.36410
C1148       C  0.93525424  0.76119629  0.86298784    -0.05770
C1149       C  0.92815539  0.79207096  0.89098221    -0.32740
C1150       C  0.89482765  0.79676481  0.91390746     0.36320
H1151       H  0.85453528  0.71809173  0.87741884     0.16690
O1152       O  0.91393090  0.70409563  0.83117828    -0.60230
H1153       H  0.94869409  0.81276271  0.89519207     0.16700
O1154       O  0.88981218  0.82718263  0.94130506    -0.60330
H1155       H  0.87782121  0.84743715  0.92377023     0.43700
H1156       H  0.89877373  0.70925765  0.80535612     0.43650
C1157       C  0.63929892  0.76460138  0.91485591    -0.05410
C1158       C  0.60928207  0.79066314  0.92226203    -0.32840
C1159       C  0.57690293  0.78938877  0.89829066     0.36410
C1160       C  0.57382861  0.76175314  0.86579280    -0.05770
C1161       C  0.60448189  0.73687827  0.85683317    -0.32740
C1162       C  0.63695703  0.73821904  0.88078607     0.36320
H1163       H  0.61043075  0.81174524  0.94759616     0.16690
O1164       O  0.54876882  0.81600772  0.90609403    -0.60230
H1165       H  0.60290822  0.71547552  0.83192055     0.16700
O1166       O  0.66542460  0.71234015  0.87184406    -0.60330
H1167       H  0.68107080  0.72466303  0.85045463     0.43700
H1168       H  0.53857710  0.80990500  0.93474422     0.43650
C1169       C  0.75770160  0.57448110  0.13937857    -0.05410
C1170       C  0.78715787  0.57876275  0.11080160    -0.32840
C1171       C  0.78683942  0.60878931  0.08230992     0.36410
C1172       C  0.75640495  0.63519609  0.08176094    -0.05770
C1173       C  0.72758586  0.63175754  0.11177808    -0.32740
C1174       C  0.72816492  0.60169593  0.14059288     0.36320
H1175       H  0.81013526  0.55799328  0.10974949     0.16690
O1176       O  0.81565712  0.61082166  0.05379743    -0.60230
H1177       H  0.70395007  0.65170197  0.11207330     0.16700
O1178       O  0.69855598  0.59759631  0.16746140    -0.60330
H1179       H  0.70231997  0.61482450  0.19215068     0.43700
H1180       H  0.83367856  0.62627500  0.06863882     0.43650
C1181       C  0.76449441  0.93465653  0.13965813    -0.05410
C1182       C  0.78958446  0.92966231  0.10509161    -0.32840
C1183       C  0.78954339  0.89756214  0.07855702     0.36410
C1184       C  0.76447100  0.86960836  0.08688437    -0.05770
C1185       C  0.74056929  0.87402163  0.12264533    -0.32740
C1186       C  0.74024889  0.90617170  0.14869204     0.36320
H1187       H  0.80874393  0.95115597  0.09805194     0.16690
O1188       O  0.81382988  0.89406665  0.04454859    -0.60230
H1189       H  0.72074002  0.85317588  0.12969271     0.16700
O1190       O  0.71403647  0.91083609  0.18064838    -0.60330
H1191       H  0.72201362  0.89302851  0.20353761     0.43700
H1192       H  0.80163827  0.90817165  0.02078309     0.43650
C1193       C  0.01761614  0.81585099  0.63288518    -0.05410
C1194       C  0.99818221  0.84884622  0.64746839    -0.32840
C1195       C  0.99912137  0.88248630  0.62464690     0.36410
C1196       C  0.01943521  0.88381238  0.58570861    -0.05770
C1197       C  0.54001490  0.85117253  0.57184723    -0.32740
C1198       C  0.53919771  0.81740012  0.59501888     0.36320
H1199       H  0.98119832  0.84837953  0.67626271     0.16690
O1200       O  0.97869939  0.91344542  0.64003888    -0.60230
H1201       H  0.55613801  0.85148051  0.54238546     0.16700
O1202       O  0.56032488  0.78638073  0.58104501    -0.60330
H1203       H  0.54862254  0.77787669  0.55422078     0.43700
H1204       H  0.99563713  0.92699437  0.65875802     0.43650
C1205       C  0.98691603  0.61058591  0.58636623    -0.05410
C1206       C  0.96366985  0.64282055  0.57897649    -0.32840
C1207       C  0.96687701  0.67613242  0.60301523     0.36410
C1208       C  0.99331518  0.67766181  0.63567929    -0.05770
C1209       C  0.51510144  0.64494029  0.64484441    -0.32740
C1210       C  0.51234661  0.61176232  0.62043456     0.36320
H1211       H  0.94357876  0.64273516  0.55351239     0.16690
O1212       O  0.94360380  0.70690573  0.59487246    -0.60230
H1213       H  0.53550486  0.64554298  0.66994801     0.16700
O1214       O  0.53536814  0.58106943  0.62962520    -0.60330
H1215       H  0.55881790  0.58545228  0.61439629     0.43700
H1216       H  0.95177745  0.71657735  0.56673580     0.43650
C1217       C  0.99070649  0.82099929  0.36485478    -0.05410
C1218       C  0.95680298  0.83816503  0.37836057    -0.32840
C1219       C  0.95547601  0.87082647  0.40445591     0.36410
C1220       C  0.98831386  0.88731303  0.41627093    -0.05770
C1221       C  0.52210703  0.87073256  0.40144600    -0.32740
C1222       C  0.52346728  0.83748110  0.37665466     0.36320
H1223       H  0.93140182  0.82558880  0.36967763     0.16690
O1224       O  0.92202398  0.88669397  0.41773894    -0.60230
H1225       H  0.54768715  0.88264192  0.41079673     0.16700
O1226       O  0.55699052  0.82090415  0.36464852    -0.60330
H1227       H  0.56399868  0.80366271  0.38845625     0.43700
H1228       H  0.91555504  0.87280105  0.44400690     0.43650
C1229       C  0.01052025  0.61238235  0.41520895    -0.05410
C1230       C  0.98497913  0.61672864  0.38175471    -0.32840
C1231       C  0.98177048  0.64992483  0.35798557     0.36410
C1232       C  0.00449832  0.67983465  0.36706630    -0.05770
C1233       C  0.53061662  0.67543333  0.39991232    -0.32740
C1234       C  0.53385907  0.64204071  0.42377844     0.36320
H1235       H  0.96627803  0.59478681  0.37476367     0.16690
O1236       O  0.95449745  0.65388177  0.32793310    -0.60230
H1237       H  0.54852081  0.69802168  0.40716700     0.16700
O1238       O  0.55920251  0.63925872  0.45608011    -0.60330
H1239       H  0.58162675  0.62696472  0.44255177     0.43700
H1240       H  0.96263148  0.63702487  0.30361637     0.43650
C1241       C  0.61474092  0.01134022  0.58087614    -0.05410
C1242       C  0.63908789  0.54080324  0.58167637    -0.32840
C1243       C  0.67053555  0.53857125  0.60690129     0.36410
C1244       C  0.67806095  0.00661842  0.63236096    -0.05770
C1245       C  0.65292188  0.97801958  0.63360245    -0.32740
C1246       C  0.62136509  0.98018092  0.60812195     0.36320
H1247       H  0.63431965  0.56544298  0.56180349     0.16690
O1248       O  0.69334659  0.56815320  0.60722839    -0.60230
H1249       H  0.65831048  0.95346731  0.65345310     0.16700
O1250       O  0.59791914  0.95121934  0.60929302    -0.60330
H1251       H  0.57894553  0.95900899  0.63122316     0.43700
H1252       H  0.70586794  0.56731551  0.57871967     0.43650
C1253       C  0.88027274  0.02018369  0.58937880    -0.05410
C1254       C  0.85044488  0.54590366  0.58218307    -0.32840
C1255       C  0.81750516  0.54373656  0.60564620     0.36410
C1256       C  0.81414531  0.01554608  0.63696666    -0.05770
C1257       C  0.84462991  0.99121986  0.64565362    -0.32740
C1258       C  0.87732679  0.99317759  0.62231065     0.36320
H1259       H  0.85218459  0.56709614  0.55753098     0.16690
O1260       O  0.78893836  0.56967353  0.59839857    -0.60230
H1261       H  0.84264446  0.96930600  0.66944369     0.16700
O1262       O  0.90564621  0.96734855  0.63100690    -0.60330
H1263       H  0.90056739  0.94458731  0.61372601     0.43700
H1264       H  0.78008552  0.56390342  0.56911442     0.43650
C1265       C  0.67782579  0.98753326  0.36284583    -0.05410
C1266       C  0.67450347  0.95539082  0.38805364    -0.32840
C1267       C  0.64371134  0.95151534  0.41425242     0.36410
C1268       C  0.61525835  0.98022207  0.41567671    -0.05770
C1269       C  0.61779757  0.51155573  0.38868836    -0.32740
C1270       C  0.64875136  0.51522105  0.36216725     0.36320
H1271       H  0.69662935  0.93368203  0.38860202     0.16690
O1272       O  0.64304016  0.92063832  0.44035956    -0.60230
H1273       H  0.59629181  0.53391304  0.38913118     0.16700
O1274       O  0.65149003  0.54725121  0.33831586    -0.60330
H1275       H  0.63681335  0.54300376  0.31217944     0.43700
H1276       H  0.63185661  0.90088228  0.42277908     0.43650
C1277       C  0.81395326  0.98851308  0.37352103    -0.05410
C1278       C  0.81294913  0.50282874  0.41587134    -0.32840
C1279       C  0.84335407  0.49827211  0.44251005     0.36410
C1280       C  0.87610310  0.98052465  0.42659377    -0.05770
C1281       C  0.87769211  0.96621505  0.38445908    -0.32740
C1282       C  0.84665012  0.96936385  0.35811903     0.36320
H1283       H  0.78858743  0.51830850  0.42833267     0.16690
O1284       O  0.84152421  0.51375367  0.48311566    -0.60230
H1285       H  0.90308890  0.95278545  0.37190454     0.16700
O1286       O  0.84812520  0.95243646  0.31820765    -0.60330
H1287       H  0.86533223  0.96704192  0.30091119     0.43700
H1288       H  0.83293183  0.49349670  0.50184662     0.43650
loop_ 
_geom_bond_atom_site_label_1 
_geom_bond_atom_site_label_2 
_geom_bond_distance 
_geom_bond_site_symmetry_2 
_ccdc_geom_bond_type 
O1            C9   1.271       .  A
O1          Co21   2.023       .  S
O2           C10   1.296   1_545  A
O2          Co22   2.099       .  S
O3           C11   1.256       .  A
O3          Co23   1.971       .  S
O4           C12   1.269   1_455  A
O4          Co24   1.968       .  S
O5          C655   1.262       .  A
O5          Co22   2.014       .  S
O6          C656   1.281       .  A
O6          Co21   2.036       .  S
O7          C332   1.264       .  A
O7          Co24   1.879       .  S
O8          C331   1.257   1_545  A
O8          Co23   1.958       .  S
C9          O330   1.257       .  A
C9          C314   1.461       .  S
C10         O329   1.264       .  A
C10         C624   1.479       .  S
C11         O649   1.262       .  A
C11         C263   1.488       .  S
C12         O650   1.281       .  A
C12         C898   1.481       .  S
O13         C670   1.251       .  A
O13         Co21   1.967       .  S
O14         C671   1.267   1_455  A
O14         Co22   1.972       .  S
O15         C350   1.275       .  A
O15         Co23   2.036       .  S
O16         C351   1.296       .  A
O16         Co24   2.101       .  S
O17          C29   1.265       .  A
O17         Co22   1.880       .  S
O18          C28   1.253       .  A
O18         Co21   1.944       .  S
O19          C26   1.261       .  A
O19         Co24   2.017       .  S
O20          C27   1.279       .  A
O20         Co23   2.030       .  S
Co21         O25   2.012       .  S
Co22        O991   1.998   1_445  S
Co23        O347   2.029   1_545  S
Co24        O669   2.006   1_455  S
O25        Co988   1.998       .  S
O25        Co345   2.029       .  S
O25        Co668   2.006       .  S
C26         O657   1.251   1_455  A
C26         C874   1.489       .  S
C27         O658   1.267       .  A
C27         C239   1.492       .  S
C28         O337   1.275       .  A
C28         C287   1.481       .  S
C29         O338   1.296   1_545  A
C29         C597   1.478       .  S
C30         C266   1.488       .  S
C30          C31   1.404       .  A
C30          C35   1.406       .  A
C31          C32   1.400       .  A
C31          H36   1.084       .  S
C32         C106   1.478       .  S
C32          C33   1.406       .  A
C33          C34   1.408       .  A
C33          H37   1.084       .  S
C34         C251   1.481       .  S
C34          C35   1.406       .  A
C35          H38   1.084       .  S
C39         C311   1.486       .  S
C39          C40   1.402       .  A
C39          C44   1.403       .  A
C40          C41   1.401       .  A
C40         H367   1.084       .  S
C41         C299   1.477       .  S
C41          C42   1.400       .  A
C42          C43   1.401       .  A
C42          H46   1.084       .  S
C43          C68   1.463       .  S
C43          C44   1.400       .  A
C44          H47   1.082       .  S
H45         C362   1.084       .  S
C48         C290   1.481       .  S
C48          C49   1.400       .  A
C48          C53   1.404       .  A
C49          C50   1.402       .  A
C49         H376   1.083       .  S
C50         C278   1.476       .  S
C50          C51   1.401       .  A
C51          C52   1.400       .  A
C51          H55   1.084       .  S
C52         C115   1.465       .  S
C52          C53   1.401       .  A
C53          H56   1.084       .  S
H54         C371   1.083       .  S
C57         C242   1.488       .  S
C57          C58   1.408       .  A
C57          C62   1.407       .  A
C58          C59   1.407       .  A
C58          H63   1.082       .  S
C59         C227   1.491       .  S
C59          C60   1.406       .  A
C60          C61   1.401       .  A
C60          H64   1.084       .  S
C61         C124   1.477       .  S
C61          C62   1.403       .  A
C62          H65   1.084       .  S
C66         C215   1.478       .  S
C66          C67   1.400       .  A
C66          C71   1.398       .  A
C67          C68   1.399       .  A
C67          H72   1.084       .  S
C68         C391   1.401       .  A
C69          C70   1.403       .  A
C69         C390   1.401       .  A
C69          H73   1.083       .  S
C70         C203   1.472       .  S
C70         C393   1.401       .  A
C71         C392   1.401       .  A
C71          H74   1.084       .  S
O75          C83   1.270       .  A
O75         Co95   2.014   1_554  S
O76          C84   1.244       .  A
O76         Co96   1.961   1_554  S
O77          C85   1.260       .  A
O77         Co97   1.966       .  S
O78          C86   1.254       .  A
O78         Co98   2.006   1_554  S
O79          C85   1.272       .  A
O79         Co96   2.025   1_554  S
O80          C86   1.244       .  A
O80         Co95   1.964   1_554  S
O81          C84   1.252       .  A
O81         Co98   1.984   1_554  S
O82          C83   1.258       .  A
O82         Co97   1.955       .  S
C83         C218   1.476       .  S
C84         C206   1.478       .  S
C85         C170   1.488       .  S
C86         C158   1.472       .  S
O87         C100   1.270       .  A
O87         Co95   1.891       .  S
O88         C101   1.261       .  A
O88         Co96   1.990       .  S
O89         C102   1.269       .  A
O89         Co97   2.008   1_556  S
O90         C103   1.300       .  A
O90         Co98   2.069       .  S
O91         C103   1.272       .  A
O91         Co96   1.885       .  S
O92         C102   1.260       .  A
O92         Co95   1.980       .  S
O93         C100   1.302       .  A
O93         Co98   2.088       .  S
O94         C101   1.267       .  A
O94         Co97   2.013   1_556  S
Co95         O99   1.929   1_556  S
Co96         O99   1.929   1_556  S
Co97         O99   2.063       .  S
Co98         O99   2.243   1_556  S
C100        C179   1.495       .  S
C101        C191   1.494       .  S
C102        C143   1.485       .  S
C103        C134   1.469       .  S
C104        C167   1.488       .  S
C104        C105   1.404       .  A
C104        C753   1.402   1_455  A
C105        C750   1.402   1_455  A
C105        H110   1.084       .  S
C106        C107   1.407       .  A
C106        C749   1.402       .  A
C107        C108   1.410       .  A
C107        H111   1.083       .  S
C108        C155   1.491       .  S
C108        C109   1.407       .  A
C109        C748   1.402       .  A
C109        H112   1.083       .  S
C113        C146   1.484       .  S
C113        C114   1.407       .  A
C113        C118   1.407       .  A
C114        C115   1.404       .  A
C114        H119   1.084       .  S
C115        C438   1.397       .  A
C116        C117   1.393       .  A
C116        C437   1.397   1_545  A
C116        H120   1.085       .  S
C117        C131   1.465       .  S
C117        C440   1.398   1_545  A
C118        C439   1.398       .  A
C118        H121   1.084       .  S
C122        C194   1.496       .  S
C122        C123   1.407       .  A
C122        C771   1.411       .  A
C123        C768   1.404       .  A
C123        H128   1.084       .  S
C124        C125   1.403       .  A
C124        C767   1.404       .  A
C125        C126   1.405       .  A
C125        H129   1.084       .  S
C126        C182   1.492       .  S
C126        C127   1.409       .  A
C127        C766   1.411       .  A
C127        H130   1.083       .  S
C131        C132   1.400       .  A
C131        C136   1.403       .  A
C132        C133   1.398       .  A
C132        H137   1.084       .  S
C133        C134   1.409       .  A
C133        O138   1.372       .  S
C134        C135   1.405       .  A
C135        C136   1.397       .  A
C135        H139   1.084       .  S
C136        O140   1.372       .  S
O138        H142   0.992       .  S
O140        H141   0.992       .  S
C143        C144   1.406       .  A
C143        C148   1.414       .  A
C144        C145   1.395       .  A
C144        H149   1.084       .  S
C145        C146   1.408       .  A
C145        O150   1.372       .  S
C146        C147   1.405       .  A
C147        C148   1.404       .  A
C147        H151   1.083       .  S
C148        O152   1.371       .  S
O150        H154   0.992       .  S
O152        H153   0.992       .  S
C155        C156   1.406       .  A
C155        C160   1.414       .  A
C156        C157   1.396       .  A
C156        H161   1.084       .  S
C157        C158   1.404       .  A
C157        O162   1.372       .  S
C158        C159   1.402       .  A
C159        C160   1.408       .  A
C159        H163   1.084       .  S
C160        O164   1.371       .  S
O162        H166   0.992       .  S
O164        H165   0.992       .  S
C167        C168   1.401       .  A
C167        C172   1.412       .  A
C168        C169   1.396       .  A
C168        H173   1.084       .  S
C169        C170   1.416       .  A
C169        O174   1.372       .  S
C170        C171   1.406       .  A
C171        C172   1.406       .  A
C171        H175   1.083       .  S
C172        O176   1.373       .  S
O174        H178   0.992       .  S
O176        H177   0.992       .  S
C179        C180   1.408       .  A
C179        C184   1.416       .  A
C180        C181   1.406       .  A
C180        H185   1.083       .  S
C181        C182   1.410       .  A
C181        O186   1.372       .  S
C182        C183   1.403       .  A
C183        C184   1.402       .  A
C183        H187   1.084       .  S
C184        O188   1.371       .  S
O186        H190   0.992       .  S
O188        H189   0.992       .  S
C191        C192   1.408       .  A
C191        C196   1.413       .  A
C192        C193   1.403       .  A
C192        H197   1.083       .  S
C193        C194   1.410       .  A
C193        O198   1.373       .  S
C194        C195   1.408       .  A
C195        C196   1.406       .  A
C195        H199   1.083       .  S
C196        O200   1.371       .  S
O198        H202   0.992       .  S
O200        H201   0.992       .  S
C203        C204   1.401       .  A
C203        C208   1.405       .  A
C204        C205   1.393       .  A
C204        H209   1.084       .  S
C205        C206   1.412       .  A
C205        O210   1.372       .  S
C206        C207   1.408       .  A
C207        C208   1.400       .  A
C207        H211   1.084       .  S
C208        O212   1.372       .  S
O210        H214   0.992       .  S
O212        H213   0.992       .  S
C215        C216   1.407       .  A
C215        C220   1.406       .  A
C216        C217   1.400       .  A
C216        H221   1.084       .  S
C217        C218   1.408       .  A
C217        O222   1.372       .  S
C218        C219   1.407       .  A
C219        C220   1.392       .  A
C219        H223   1.084       .  S
C220        O224   1.373       .  S
O222        H226   0.992       .  S
O224        H225   0.992       .  S
C227        C228   1.403       .  A
C227        C876   1.412       .  A
C228        C229   1.397       .  A
C228        H233   1.084       .  S
C229        C230   1.415       .  A
C229        O234   1.372       .  S
C230        C670   1.489       .  S
C230        C875   1.406       .  A
C231        C232   1.407       .  A
C231        C874   1.406       .  A
C231        H235   1.083       .  S
C232        C871   1.412       .  A
C232        O236   1.372       .  S
O234        H238   0.992       .  S
O236        H237   0.992       .  S
C239        C240   1.408       .  A
C239        C888   1.416       .  A
C240        C241   1.403       .  A
C240        H245   1.083       .  S
C241        C242   1.409       .  A
C241        O246   1.372       .  S
C242        C887   1.403       .  A
C243        C244   1.403       .  A
C243        C886   1.403   1_455  A
C243        H247   1.084       .  S
C244        C883   1.416   1_455  A
C244        O248   1.372       .  S
O246        H250   0.992       .  S
O248        H249   0.992       .  S
C251        C252   1.404       .  A
C251        C900   1.406       .  A
C252        C253   1.406       .  A
C252        H257   1.083       .  S
C253        C254   1.409       .  A
C253        O258   1.371       .  S
C254        C656   1.481       .  S
C254        C899   1.405       .  A
C255        C256   1.401       .  A
C255        C898   1.405   1_455  A
C255        H259   1.084       .  S
C256        C895   1.406   1_455  A
C256        O260   1.372       .  S
O258        H262   0.991       .  S
O260        H261   0.992       .  S
C263        C264   1.406       .  A
C263        C912   1.413       .  A
C264        C265   1.398       .  A
C264        H269   1.083       .  S
C265        C266   1.409       .  A
C265        O270   1.373       .  S
C266        C911   1.406       .  A
C267        C268   1.405       .  A
C267        C910   1.406       .  A
C267        H271   1.083       .  S
C268        C907   1.413       .  A
C268        O272   1.371       .  S
O270        H274   0.992       .  S
O272        H273   0.992       .  S
C275        C351   1.478       .  S
C275        C280   1.412       .  A
C275        C598   1.405       .  A
C276        C277   1.393       .  A
C276        C597   1.405       .  A
C276        H281   1.083       .  S
C277        C600   1.407       .  A
C277        O282   1.373       .  S
C278        C279   1.403       .  A
C278        C599   1.407       .  A
C279        C280   1.401       .  A
C279        H283   1.084       .  S
C280        O284   1.372       .  S
O282        H286   0.992       .  S
O284        H285   0.992       .  S
C287        C292   1.417       .  A
C287        C610   1.403       .  A
C288        C289   1.403       .  A
C288        C609   1.403       .  A
C288        H293   1.083       .  S
C289        C612   1.412       .  A
C289        O294   1.372       .  S
C290        C291   1.398       .  A
C290        C611   1.412       .  A
C291        C292   1.393       .  A
C291        H295   1.084       .  S
C292        O296   1.372       .  S
O294        H298   0.992       .  S
O296        H297   0.992       .  S
C299        C300   1.401       .  A
C299        C626   1.407       .  A
C300        C301   1.392       .  A
C300        H305   1.084       .  S
C301        C302   1.412       .  A
C301        O306   1.372       .  S
C302        C332   1.479       .  S
C302        C625   1.407       .  A
C303        C304   1.402       .  A
C303        C624   1.407   1_545  A
C303        H307   1.084       .  S
C304        C621   1.407   1_545  A
C304        O308   1.371       .  S
O306        H310   0.992       .  S
O308        H309   0.992       .  S
C311        C316   1.414       .  A
C311        C634   1.406       .  A
C312        C313   1.392   1_545  A
C312        C633   1.406   1_545  A
C312        H317   1.083       .  S
C313        C636   1.403       .  A
C313        O318   1.371   1_565  S
C314        C315   1.400       .  A
C314        C635   1.403       .  A
C315        C316   1.402       .  A
C315        H319   1.084       .  S
C316        O320   1.372       .  S
O318        H322   0.992   1_545  S
O320        H321   0.992       .  S
O323        C331   1.271       .  A
O323       Co343   2.023       .  S
O324        C332   1.296       .  A
O324       Co344   2.099       .  S
O325        C333   1.256       .  A
O325       Co345   1.971       .  S
O326        C334   1.269   1_455  A
O326       Co346   1.968       .  S
O327        C977   1.262       .  A
O327       Co344   2.014       .  S
O328        C978   1.281       .  A
O328       Co343   2.036       .  S
O329       Co346   1.879       .  S
O330       Co345   1.958       .  S
C331        C636   1.461       .  S
C333        O971   1.262       .  A
C333        C585   1.488       .  S
C334        O972   1.281       .  A
C334       C1220   1.481       .  S
O335        C992   1.251       .  A
O335       Co343   1.967       .  S
O336        C993   1.267   1_455  A
O336       Co344   1.972       .  S
O337       Co345   2.036       .  S
O338       Co346   2.101       .  S
O339        C351   1.265       .  A
O339       Co344   1.880       .  S
O340        C350   1.253   1_565  A
O340       Co343   1.944       .  S
O341        C348   1.261       .  A
O341       Co346   2.017       .  S
O342        C349   1.279       .  A
O342       Co345   2.030       .  S
Co343       O347   2.012       .  S
Co344       O669   1.998   1_455  S
Co346       O991   2.006   1_455  S
O347       Co666   1.998   1_565  S
O347       Co990   2.006       .  S
C348        O979   1.251   1_455  A
C348       C1196   1.489       .  S
C349        O980   1.267       .  A
C349        C561   1.492       .  S
C350        C609   1.481       .  S
C352        C588   1.488       .  S
C352        C353   1.404       .  A
C352        C357   1.406       .  A
C353        C354   1.400       .  A
C353        H358   1.084       .  S
C354        C428   1.478       .  S
C354        C355   1.406       .  A
C355        C356   1.408       .  A
C355        H359   1.084       .  S
C356        C573   1.481       .  S
C356        C357   1.406       .  A
C357        H360   1.084       .  S
C361        C633   1.486       .  S
C361        C362   1.402       .  A
C361        C366   1.403   1_565  A
C362        C363   1.401       .  A
C363        C621   1.477       .  S
C363        C364   1.400   1_565  A
C364        C365   1.401       .  A
C364        H368   1.084       .  S
C365        C390   1.463       .  S
C365        C366   1.400       .  A
C366        H369   1.082       .  S
C370        C612   1.481       .  S
C370        C371   1.400       .  A
C370        C375   1.404       .  A
C371        C372   1.402       .  A
C372        C600   1.476       .  S
C372        C373   1.401   1_545  A
C373        C374   1.400       .  A
C373        H377   1.084       .  S
C374        C437   1.465       .  S
C374        C375   1.401   1_565  A
C375        H378   1.084       .  S
C379        C564   1.488       .  S
C379        C380   1.408       .  A
C379        C384   1.407       .  A
C380        C381   1.407       .  A
C380        H385   1.082       .  S
C381        C549   1.491       .  S
C381        C382   1.406       .  A
C382        C383   1.401       .  A
C382        H386   1.084       .  S
C383        C446   1.477       .  S
C383        C384   1.403       .  A
C384        H387   1.084       .  S
C388        C537   1.478       .  S
C388        C389   1.400       .  A
C388        C393   1.398   1_565  A
C389        C390   1.399   1_565  A
C389        H394   1.084       .  S
C391        C392   1.403       .  A
C391        H395   1.083       .  S
C392        C525   1.472       .  S
C393        H396   1.084       .  S
O397        C405   1.270       .  A
O397       Co417   2.014   1_554  S
O398        C406   1.244       .  A
O398       Co418   1.961   1_554  S
O399        C407   1.260       .  A
O399       Co419   1.966       .  S
O400        C408   1.254       .  A
O400       Co420   2.006   1_554  S
O401        C407   1.272       .  A
O401       Co418   2.025   1_554  S
O402        C408   1.244       .  A
O402       Co417   1.964   1_554  S
O403        C406   1.252       .  A
O403       Co420   1.984   1_554  S
O404        C405   1.258       .  A
O404       Co419   1.955       .  S
C405        C540   1.476       .  S
C406        C528   1.478       .  S
C407        C492   1.488       .  S
C408        C480   1.472       .  S
O409        C422   1.270       .  A
O409       Co417   1.891       .  S
O410        C423   1.261       .  A
O410       Co418   1.990       .  S
O411        C424   1.269       .  A
O411       Co419   2.008   1_556  S
O412        C425   1.300       .  A
O412       Co420   2.069       .  S
O413        C425   1.272       .  A
O413       Co418   1.885       .  S
O414        C424   1.260       .  A
O414       Co417   1.980       .  S
O415        C422   1.302       .  A
O415       Co420   2.088       .  S
O416        C423   1.267       .  A
O416       Co419   2.013   1_556  S
Co417       O421   1.929   1_556  S
Co418       O421   1.929   1_556  S
Co419       O421   2.063       .  S
Co420       O421   2.243   1_556  S
C422        C501   1.495       .  S
C423        C513   1.494       .  S
C424        C465   1.485       .  S
C425        C456   1.469       .  S
C426        C489   1.488       .  S
C426        C427   1.404       .  A
C426       C1075   1.402   1_455  A
C427       C1072   1.402   1_455  A
C427        H432   1.084       .  S
C428       C1071   1.402       .  A
C428        C429   1.407       .  A
C429        C430   1.410       .  A
C429        H433   1.083       .  S
C430        C477   1.491       .  S
C430        C431   1.407       .  A
C431       C1070   1.402       .  A
C431        H434   1.083       .  S
C435        C468   1.484       .  S
C435        C436   1.407       .  A
C435        C440   1.407       .  A
C436        C437   1.404       .  A
C436        H441   1.084       .  S
C438        C439   1.393       .  A
C438        H442   1.085       .  S
C439        C453   1.465       .  S
C440        H443   1.084       .  S
C444        C516   1.496       .  S
C444        C445   1.407       .  A
C444       C1093   1.411       .  A
C445       C1090   1.404       .  A
C445        H450   1.084       .  S
C446       C1089   1.404       .  A
C446        C447   1.403       .  A
C447        C448   1.405       .  A
C447        H451   1.084       .  S
C448        C504   1.492       .  S
C448        C449   1.409       .  A
C449       C1088   1.411       .  A
C449        H452   1.083       .  S
C453        C454   1.400       .  A
C453        C458   1.403       .  A
C454        C455   1.398       .  A
C454        H459   1.084       .  S
C455        C456   1.409       .  A
C455        O460   1.372       .  S
C456        C457   1.405       .  A
C457        C458   1.397       .  A
C457        H461   1.084       .  S
C458        O462   1.372       .  S
O460        H464   0.992       .  S
O462        H463   0.992       .  S
C465        C466   1.406       .  A
C465        C470   1.414       .  A
C466        C467   1.395       .  A
C466        H471   1.084       .  S
C467        C468   1.408       .  A
C467        O472   1.372       .  S
C468        C469   1.405       .  A
C469        C470   1.404       .  A
C469        H473   1.083       .  S
C470        O474   1.371       .  S
O472        H476   0.992       .  S
O474        H475   0.992       .  S
C477        C478   1.406       .  A
C477        C482   1.414       .  A
C478        C479   1.396       .  A
C478        H483   1.084       .  S
C479        C480   1.404       .  A
C479        O484   1.372       .  S
C480        C481   1.402       .  A
C481        C482   1.408       .  A
C481        H485   1.084       .  S
C482        O486   1.371       .  S
O484        H488   0.992       .  S
O486        H487   0.992       .  S
C489        C490   1.401       .  A
C489        C494   1.412       .  A
C490        C491   1.396       .  A
C490        H495   1.084       .  S
C491        C492   1.416       .  A
C491        O496   1.372       .  S
C492        C493   1.406       .  A
C493        C494   1.406       .  A
C493        H497   1.083       .  S
C494        O498   1.373       .  S
O496        H500   0.992       .  S
O498        H499   0.992       .  S
C501        C502   1.408       .  A
C501        C506   1.416       .  A
C502        C503   1.406       .  A
C502        H507   1.083       .  S
C503        C504   1.410       .  A
C503        O508   1.372       .  S
C504        C505   1.403       .  A
C505        C506   1.402       .  A
C505        H509   1.084       .  S
C506        O510   1.371       .  S
O508        H512   0.992       .  S
O510        H511   0.992       .  S
C513        C514   1.408       .  A
C513        C518   1.413       .  A
C514        C515   1.403       .  A
C514        H519   1.083       .  S
C515        C516   1.410       .  A
C515        O520   1.373       .  S
C516        C517   1.408       .  A
C517        C518   1.406       .  A
C517        H521   1.083       .  S
C518        O522   1.371       .  S
O520        H524   0.992       .  S
O522        H523   0.992       .  S
C525        C526   1.401       .  A
C525        C530   1.405       .  A
C526        C527   1.393       .  A
C526        H531   1.084       .  S
C527        C528   1.412       .  A
C527        O532   1.372       .  S
C528        C529   1.408       .  A
C529        C530   1.400       .  A
C529        H533   1.084       .  S
C530        O534   1.372       .  S
O532        H536   0.992       .  S
O534        H535   0.992       .  S
C537        C538   1.407       .  A
C537        C542   1.406       .  A
C538        C539   1.400       .  A
C538        H543   1.084       .  S
C539        C540   1.408       .  A
C539        O544   1.372       .  S
C540        C541   1.407       .  A
C541        C542   1.392       .  A
C541        H545   1.084       .  S
C542        O546   1.373       .  S
O544        H548   0.992       .  S
O546        H547   0.992       .  S
C549        C550   1.403       .  A
C549       C1198   1.412       .  A
C550        C551   1.397       .  A
C550        H555   1.084       .  S
C551        C552   1.415       .  A
C551        O556   1.372       .  S
C552        C992   1.489       .  S
C552       C1197   1.406       .  A
C553       C1196   1.406       .  A
C553        C554   1.407       .  A
C553        H557   1.083       .  S
C554       C1193   1.412       .  A
C554        O558   1.372       .  S
O556        H560   0.992       .  S
O558        H559   0.992       .  S
C561        C562   1.408       .  A
C561       C1210   1.416       .  A
C562        C563   1.403       .  A
C562        H567   1.083       .  S
C563        C564   1.409       .  A
C563        O568   1.372       .  S
C564       C1209   1.403       .  A
C565       C1208   1.403   1_455  A
C565        C566   1.403       .  A
C565        H569   1.084       .  S
C566       C1205   1.416   1_455  A
C566        O570   1.372       .  S
O568        H572   0.992       .  S
O570        H571   0.992       .  S
C573        C574   1.404       .  A
C573       C1222   1.406       .  A
C574        C575   1.406       .  A
C574        H579   1.083       .  S
C575        C576   1.409       .  A
C575        O580   1.371       .  S
C576        C978   1.481       .  S
C576       C1221   1.405       .  A
C577       C1220   1.405   1_455  A
C577        C578   1.401       .  A
C577        H581   1.084       .  S
C578       C1217   1.406   1_455  A
C578        O582   1.372       .  S
O580        H584   0.991       .  S
O582        H583   0.992       .  S
C585        C586   1.406       .  A
C585       C1234   1.413       .  A
C586        C587   1.398       .  A
C586        H591   1.083       .  S
C587        C588   1.409       .  A
C587        O592   1.373       .  S
C588       C1233   1.406       .  A
C589       C1232   1.406       .  A
C589        C590   1.405       .  A
C589        H593   1.083       .  S
C590       C1229   1.413       .  A
C590        O594   1.371       .  S
O592        H596   0.992       .  S
O594        H595   0.992       .  S
C597        C602   1.412   1_545  A
C598        C599   1.393       .  A
C598        H603   1.083       .  S
C599        O604   1.373       .  S
C600        C601   1.403   1_545  A
C601        C602   1.401       .  A
C601        H605   1.084       .  S
C602        O606   1.372       .  S
O604        H608   0.992       .  S
O606        H607   0.992       .  S
C609        C614   1.417   1_545  A
C610        C611   1.403       .  A
C610        H615   1.083       .  S
C611        O616   1.372       .  S
C612        C613   1.398   1_545  A
C613        C614   1.393       .  A
C613        H617   1.084       .  S
C614        O618   1.372       .  S
O616        H620   0.992       .  S
O618        H619   0.992       .  S
C621        C622   1.401       .  A
C622        C623   1.392       .  A
C622        H627   1.084       .  S
C623        C624   1.412       .  A
C623        O628   1.372       .  S
C625        C626   1.402       .  A
C625        H629   1.084       .  S
C626        O630   1.371       .  S
O628        H632   0.992       .  S
O630        H631   0.992       .  S
C633        C638   1.414       .  A
C634        C635   1.392       .  A
C634        H639   1.083       .  S
C635        O640   1.371       .  S
C636        C637   1.400       .  A
C637        C638   1.402       .  A
C637        H641   1.084       .  S
C638        O642   1.372       .  S
O640        H644   0.992       .  S
O642        H643   0.992       .  S
O645        C653   1.271       .  A
O645       Co665   2.023       .  S
O646        C654   1.296   1_545  A
O646       Co666   2.099       .  S
O647        C655   1.256   1_655  A
O647       Co667   1.971       .  S
O648        C656   1.269       .  A
O648       Co668   1.968       .  S
O649       Co666   2.014       .  S
O650       Co665   2.036       .  S
O651        C976   1.264       .  A
O651       Co668   1.879       .  S
O652        C975   1.257   1_545  A
O652       Co667   1.958       .  S
C653        O974   1.257       .  A
C653        C958   1.461       .  S
C654        O973   1.264       .  A
C654       C1268   1.479       .  S
C655        C907   1.488       .  S
O657       Co665   1.967       .  S
O658       Co666   1.972       .  S
O659        C994   1.275       .  A
O659       Co667   2.036       .  S
O660        C995   1.296       .  A
O660       Co668   2.101       .  S
O661        C673   1.265       .  A
O661       Co666   1.880       .  S
O662        C672   1.253       .  A
O662       Co665   1.944       .  S
O663        C670   1.261       .  A
O663       Co668   2.017       .  S
O664        C671   1.279       .  A
O664       Co667   2.030       .  S
Co665       O669   2.012       .  S
Co667       O991   2.029   1_545  S
O669       Co989   2.029       .  S
C671        C883   1.492       .  S
C672        O981   1.275       .  A
C672        C931   1.481       .  S
C673        O982   1.296   1_545  A
C673       C1241   1.478       .  S
C674        C910   1.488       .  S
C674        C675   1.404   1_455  A
C674        C679   1.406   1_455  A
C675        C676   1.400       .  A
C675        H680   1.084   1_655  S
C676        C750   1.478       .  S
C676        C677   1.406       .  A
C677        C678   1.408       .  A
C677        H681   1.084       .  S
C678        C895   1.481       .  S
C678        C679   1.406       .  A
C679        H682   1.084       .  S
C683        C955   1.486       .  S
C683        C684   1.402       .  A
C683        C688   1.403       .  A
C684        C685   1.401       .  A
C684       H1011   1.084       .  S
C685        C943   1.477       .  S
C685        C686   1.400       .  A
C686        C687   1.401       .  A
C686        H690   1.084       .  S
C687        C712   1.463       .  S
C687        C688   1.400       .  A
C688        H691   1.082       .  S
H689       C1006   1.084       .  S
C692        C934   1.481       .  S
C692        C693   1.400       .  A
C692        C697   1.404       .  A
C693        C694   1.402       .  A
C693       H1020   1.083       .  S
C694        C922   1.476       .  S
C694        C695   1.401       .  A
C695        C696   1.400       .  A
C695        H699   1.084       .  S
C696        C759   1.465       .  S
C696        C697   1.401       .  A
C697        H700   1.084       .  S
H698       C1015   1.083       .  S
C701        C886   1.488       .  S
C701        C702   1.408   1_655  A
C701        C706   1.407   1_655  A
C702        C703   1.407       .  A
C702        H707   1.082       .  S
C703        C871   1.491       .  S
C703        C704   1.406       .  A
C704        C705   1.401       .  A
C704        H708   1.084       .  S
C705        C768   1.477       .  S
C705        C706   1.403       .  A
C706        H709   1.084   1_455  S
C710        C859   1.478       .  S
C710        C711   1.400       .  A
C710        C715   1.398       .  A
C711        C712   1.399       .  A
C711        H716   1.084       .  S
C712       C1035   1.401       .  A
C713       C1034   1.401       .  A
C713        C714   1.403       .  A
C713        H717   1.083       .  S
C714        C847   1.472       .  S
C714       C1037   1.401       .  A
C715       C1036   1.401       .  A
C715        H718   1.084       .  S
O719        C727   1.270       .  A
O719       Co739   2.014   1_554  S
O720        C728   1.244       .  A
O720       Co740   1.961   1_554  S
O721        C729   1.260       .  A
O721       Co741   1.966       .  S
O722        C730   1.254       .  A
O722       Co742   2.006   1_554  S
O723        C729   1.272       .  A
O723       Co740   2.025   1_554  S
O724        C730   1.244       .  A
O724       Co739   1.964   1_554  S
O725        C728   1.252       .  A
O725       Co742   1.984   1_554  S
O726        C727   1.258       .  A
O726       Co741   1.955       .  S
C727        C862   1.476       .  S
C728        C850   1.478       .  S
C729        C814   1.488       .  S
C730        C802   1.472       .  S
O731        C744   1.270       .  A
O731       Co739   1.891       .  S
O732        C745   1.261       .  A
O732       Co740   1.990       .  S
O733        C746   1.269       .  A
O733       Co741   2.008   1_556  S
O734        C747   1.300       .  A
O734       Co742   2.069       .  S
O735        C747   1.272       .  A
O735       Co740   1.885       .  S
O736        C746   1.260       .  A
O736       Co739   1.980       .  S
O737        C744   1.302       .  A
O737       Co742   2.088       .  S
O738        C745   1.267       .  A
O738       Co741   2.013   1_556  S
Co739       O743   1.929   1_556  S
Co740       O743   1.929   1_556  S
Co741       O743   2.063       .  S
Co742       O743   2.243   1_556  S
C744        C823   1.495       .  S
C745        C835   1.494       .  S
C746        C787   1.485       .  S
C747        C778   1.469       .  S
C748        C811   1.488       .  S
C748        C749   1.404       .  A
C749        H754   1.084       .  S
C750        C751   1.407       .  A
C751        C752   1.410       .  A
C751        H755   1.083       .  S
C752        C799   1.491       .  S
C752        C753   1.407       .  A
C753        H756   1.083       .  S
C757        C790   1.484       .  S
C757        C758   1.407       .  A
C757        C762   1.407       .  A
C758        C759   1.404       .  A
C758        H763   1.084       .  S
C759       C1082   1.397       .  A
C760       C1081   1.397   1_545  A
C760        C761   1.393       .  A
C760        H764   1.085       .  S
C761        C775   1.465       .  S
C761       C1084   1.398   1_545  A
C762       C1083   1.398       .  A
C762        H765   1.084       .  S
C766        C838   1.496       .  S
C766        C767   1.407       .  A
C767        H772   1.084       .  S
C768        C769   1.403   1_455  A
C769        C770   1.405       .  A
C769        H773   1.084       .  S
C770        C826   1.492       .  S
C770        C771   1.409   1_655  A
C771        H774   1.083       .  S
C775        C776   1.400       .  A
C775        C780   1.403       .  A
C776        C777   1.398       .  A
C776        H781   1.084       .  S
C777        C778   1.409       .  A
C777        O782   1.372       .  S
C778        C779   1.405       .  A
C779        C780   1.397       .  A
C779        H783   1.084       .  S
C780        O784   1.372       .  S
O782        H786   0.992       .  S
O784        H785   0.992       .  S
C787        C788   1.406       .  A
C787        C792   1.414       .  A
C788        C789   1.395       .  A
C788        H793   1.084       .  S
C789        C790   1.408       .  A
C789        O794   1.372       .  S
C790        C791   1.405       .  A
C791        C792   1.404       .  A
C791        H795   1.083       .  S
C792        O796   1.371       .  S
O794        H798   0.992       .  S
O796        H797   0.992       .  S
C799        C800   1.406       .  A
C799        C804   1.414       .  A
C800        C801   1.396       .  A
C800        H805   1.084       .  S
C801        C802   1.404       .  A
C801        O806   1.372       .  S
C802        C803   1.402       .  A
C803        C804   1.408       .  A
C803        H807   1.084       .  S
C804        O808   1.371       .  S
O806        H810   0.992       .  S
O808        H809   0.992       .  S
C811        C812   1.401       .  A
C811        C816   1.412       .  A
C812        C813   1.396       .  A
C812        H817   1.084       .  S
C813        C814   1.416       .  A
C813        O818   1.372       .  S
C814        C815   1.406       .  A
C815        C816   1.406       .  A
C815        H819   1.083       .  S
C816        O820   1.373       .  S
O818        H822   0.992       .  S
O820        H821   0.992       .  S
C823        C824   1.408       .  A
C823        C828   1.416       .  A
C824        C825   1.406       .  A
C824        H829   1.083       .  S
C825        C826   1.410       .  A
C825        O830   1.372       .  S
C826        C827   1.403       .  A
C827        C828   1.402       .  A
C827        H831   1.084       .  S
C828        O832   1.371       .  S
O830        H834   0.992       .  S
O832        H833   0.992       .  S
C835        C836   1.408       .  A
C835        C840   1.413       .  A
C836        C837   1.403       .  A
C836        H841   1.083       .  S
C837        C838   1.410       .  A
C837        O842   1.373       .  S
C838        C839   1.408       .  A
C839        C840   1.406       .  A
C839        H843   1.083       .  S
C840        O844   1.371       .  S
O842        H846   0.992       .  S
O844        H845   0.992       .  S
C847        C848   1.401       .  A
C847        C852   1.405       .  A
C848        C849   1.393       .  A
C848        H853   1.084       .  S
C849        C850   1.412       .  A
C849        O854   1.372       .  S
C850        C851   1.408       .  A
C851        C852   1.400       .  A
C851        H855   1.084       .  S
C852        O856   1.372       .  S
O854        H858   0.992       .  S
O856        H857   0.992       .  S
C859        C860   1.407       .  A
C859        C864   1.406       .  A
C860        C861   1.400       .  A
C860        H865   1.084       .  S
C861        C862   1.408       .  A
C861        O866   1.372       .  S
C862        C863   1.407       .  A
C863        C864   1.392       .  A
C863        H867   1.084       .  S
C864        O868   1.373       .  S
O866        H870   0.992       .  S
O868        H869   0.992       .  S
C871        C872   1.403   1_455  A
C872        C873   1.397       .  A
C872        H877   1.084       .  S
C873        C874   1.415   1_655  A
C873        O878   1.372       .  S
C875        C876   1.407       .  A
C875        H879   1.083       .  S
C876        O880   1.372       .  S
O878        H882   0.992       .  S
O880        H881   0.992       .  S
C883        C884   1.408       .  A
C884        C885   1.403       .  A
C884        H889   1.083       .  S
C885        C886   1.409       .  A
C885        O890   1.372       .  S
C887        C888   1.403       .  A
C887        H891   1.084       .  S
C888        O892   1.372       .  S
O890        H894   0.992       .  S
O892        H893   0.992       .  S
C895        C896   1.404       .  A
C896        C897   1.406       .  A
C896        H901   1.083       .  S
C897        C898   1.409       .  A
C897        O902   1.371       .  S
C899        C900   1.401       .  A
C899        H903   1.084       .  S
C900        O904   1.372       .  S
O902        H906   0.991       .  S
O904        H905   0.992       .  S
C907        C908   1.406   1_455  A
C908        C909   1.398       .  A
C908        H913   1.083       .  S
C909        C910   1.409   1_655  A
C909        O914   1.373       .  S
C911        C912   1.405       .  A
C911        H915   1.083       .  S
C912        O916   1.371       .  S
O914        H918   0.992       .  S
O916        H917   0.992       .  S
C919        C995   1.478       .  S
C919       C1242   1.405       .  A
C919        C924   1.412       .  A
C920       C1241   1.405       .  A
C920        C921   1.393       .  A
C920        H925   1.083       .  S
C921       C1244   1.407       .  A
C921        O926   1.373       .  S
C922       C1243   1.407       .  A
C922        C923   1.403       .  A
C923        C924   1.401       .  A
C923        H927   1.084       .  S
C924        O928   1.372       .  S
O926        H930   0.992       .  S
O928        H929   0.992       .  S
C931       C1254   1.403       .  A
C931        C936   1.417       .  A
C932       C1253   1.403       .  A
C932        C933   1.403       .  A
C932        H937   1.083       .  S
C933       C1256   1.412       .  A
C933        O938   1.372       .  S
C934       C1255   1.412       .  A
C934        C935   1.398       .  A
C935        C936   1.393       .  A
C935        H939   1.084       .  S
C936        O940   1.372       .  S
O938        H942   0.992       .  S
O940        H941   0.992       .  S
C943        C944   1.401       .  A
C943       C1270   1.407       .  A
C944        C945   1.392       .  A
C944        H949   1.084       .  S
C945        C946   1.412       .  A
C945        O950   1.372       .  S
C946        C976   1.479       .  S
C946       C1269   1.407       .  A
C947       C1268   1.407   1_545  A
C947        C948   1.402       .  A
C947        H951   1.084       .  S
C948       C1265   1.407   1_545  A
C948        O952   1.371       .  S
O950        H954   0.992       .  S
O952        H953   0.992       .  S
C955       C1278   1.406       .  A
C955        C960   1.414       .  A
C956       C1277   1.406   1_545  A
C956        C957   1.392   1_545  A
C956        H961   1.083       .  S
C957       C1280   1.403       .  A
C957        O962   1.371   1_565  S
C958       C1279   1.403       .  A
C958        C959   1.400       .  A
C959        C960   1.402       .  A
C959        H963   1.084       .  S
C960        O964   1.372       .  S
O962        H966   0.992   1_545  S
O964        H965   0.992       .  S
O967        C975   1.271       .  A
O967       Co987   2.023       .  S
O968        C976   1.296       .  A
O968       Co988   2.099       .  S
O969        C977   1.256   1_655  A
O969       Co989   1.971       .  S
O970        C978   1.269       .  A
O970       Co990   1.968       .  S
O971       Co988   2.014       .  S
O972       Co987   2.036       .  S
O973       Co990   1.879       .  S
O974       Co989   1.958       .  S
C975       C1280   1.461       .  S
C977       C1229   1.488       .  S
O979       Co987   1.967       .  S
O980       Co988   1.972       .  S
O981       Co989   2.036       .  S
O982       Co990   2.101       .  S
O983        C995   1.265       .  A
O983       Co988   1.880       .  S
O984        C994   1.253   1_565  A
O984       Co987   1.944       .  S
O985        C992   1.261       .  A
O985       Co990   2.017       .  S
O986        C993   1.279       .  A
O986       Co989   2.030       .  S
Co987       O991   2.012       .  S
C993       C1205   1.492       .  S
C994       C1253   1.481       .  S
C996       C1232   1.488       .  S
C996        C997   1.404   1_455  A
C996       C1001   1.406   1_455  A
C997        C998   1.400       .  A
C997       H1002   1.084   1_655  S
C998       C1072   1.478       .  S
C998        C999   1.406       .  A
C999       C1000   1.408       .  A
C999       H1003   1.084       .  S
C1000      C1217   1.481       .  S
C1000      C1001   1.406       .  A
C1001      H1004   1.084       .  S
C1005      C1277   1.486       .  S
C1005      C1006   1.402       .  A
C1005      C1010   1.403   1_565  A
C1006      C1007   1.401       .  A
C1007      C1265   1.477       .  S
C1007      C1008   1.400   1_565  A
C1008      C1009   1.401       .  A
C1008      H1012   1.084       .  S
C1009      C1034   1.463       .  S
C1009      C1010   1.400       .  A
C1010      H1013   1.082       .  S
C1014      C1256   1.481       .  S
C1014      C1015   1.400       .  A
C1014      C1019   1.404       .  A
C1015      C1016   1.402       .  A
C1016      C1244   1.476       .  S
C1016      C1017   1.401   1_545  A
C1017      C1018   1.400       .  A
C1017      H1021   1.084       .  S
C1018      C1081   1.465       .  S
C1018      C1019   1.401   1_565  A
C1019      H1022   1.084       .  S
C1023      C1208   1.488       .  S
C1023      C1024   1.408   1_655  A
C1023      C1028   1.407   1_655  A
C1024      C1025   1.407       .  A
C1024      H1029   1.082       .  S
C1025      C1193   1.491       .  S
C1025      C1026   1.406       .  A
C1026      C1027   1.401       .  A
C1026      H1030   1.084       .  S
C1027      C1090   1.477       .  S
C1027      C1028   1.403       .  A
C1028      H1031   1.084   1_455  S
C1032      C1181   1.478       .  S
C1032      C1033   1.400       .  A
C1032      C1037   1.398   1_565  A
C1033      C1034   1.399   1_565  A
C1033      H1038   1.084       .  S
C1035      C1036   1.403       .  A
C1035      H1039   1.083       .  S
C1036      C1169   1.472       .  S
C1037      H1040   1.084       .  S
O1041      C1049   1.270       .  A
O1041     Co1061   2.014   1_554  S
O1042      C1050   1.244       .  A
O1042     Co1062   1.961   1_554  S
O1043      C1051   1.260       .  A
O1043     Co1063   1.966       .  S
O1044      C1052   1.254       .  A
O1044     Co1064   2.006   1_554  S
O1045      C1051   1.272       .  A
O1045     Co1062   2.025   1_554  S
O1046      C1052   1.244       .  A
O1046     Co1061   1.964   1_554  S
O1047      C1050   1.252       .  A
O1047     Co1064   1.984   1_554  S
O1048      C1049   1.258       .  A
O1048     Co1063   1.955       .  S
C1049      C1184   1.476       .  S
C1050      C1172   1.478       .  S
C1051      C1136   1.488       .  S
C1052      C1124   1.472       .  S
O1053      C1066   1.270       .  A
O1053     Co1061   1.891       .  S
O1054      C1067   1.261       .  A
O1054     Co1062   1.990       .  S
O1055      C1068   1.269       .  A
O1055     Co1063   2.008   1_556  S
O1056      C1069   1.300       .  A
O1056     Co1064   2.069       .  S
O1057      C1069   1.272       .  A
O1057     Co1062   1.885       .  S
O1058      C1068   1.260       .  A
O1058     Co1061   1.980       .  S
O1059      C1066   1.302       .  A
O1059     Co1064   2.088       .  S
O1060      C1067   1.267       .  A
O1060     Co1063   2.013   1_556  S
Co1061     O1065   1.929   1_556  S
Co1062     O1065   1.929   1_556  S
Co1063     O1065   2.063       .  S
Co1064     O1065   2.243   1_556  S
C1066      C1145   1.495       .  S
C1067      C1157   1.494       .  S
C1068      C1109   1.485       .  S
C1069      C1100   1.469       .  S
C1070      C1133   1.488       .  S
C1070      C1071   1.404       .  A
C1071      H1076   1.084       .  S
C1072      C1073   1.407       .  A
C1073      C1074   1.410       .  A
C1073      H1077   1.083       .  S
C1074      C1121   1.491       .  S
C1074      C1075   1.407       .  A
C1075      H1078   1.083       .  S
C1079      C1112   1.484       .  S
C1079      C1080   1.407       .  A
C1079      C1084   1.407       .  A
C1080      C1081   1.404       .  A
C1080      H1085   1.084       .  S
C1082      C1083   1.393       .  A
C1082      H1086   1.085       .  S
C1083      C1097   1.465       .  S
C1084      H1087   1.084       .  S
C1088      C1160   1.496       .  S
C1088      C1089   1.407       .  A
C1089      H1094   1.084       .  S
C1090      C1091   1.403   1_455  A
C1091      C1092   1.405       .  A
C1091      H1095   1.084       .  S
C1092      C1148   1.492       .  S
C1092      C1093   1.409   1_655  A
C1093      H1096   1.083       .  S
C1097      C1098   1.400       .  A
C1097      C1102   1.403       .  A
C1098      C1099   1.398       .  A
C1098      H1103   1.084       .  S
C1099      C1100   1.409       .  A
C1099      O1104   1.372       .  S
C1100      C1101   1.405       .  A
C1101      C1102   1.397       .  A
C1101      H1105   1.084       .  S
C1102      O1106   1.372       .  S
O1104      H1108   0.992       .  S
O1106      H1107   0.992       .  S
C1109      C1110   1.406       .  A
C1109      C1114   1.414       .  A
C1110      C1111   1.395       .  A
C1110      H1115   1.084       .  S
C1111      C1112   1.408       .  A
C1111      O1116   1.372       .  S
C1112      C1113   1.405       .  A
C1113      C1114   1.404       .  A
C1113      H1117   1.083       .  S
C1114      O1118   1.371       .  S
O1116      H1120   0.992       .  S
O1118      H1119   0.992       .  S
C1121      C1122   1.406       .  A
C1121      C1126   1.414       .  A
C1122      C1123   1.396       .  A
C1122      H1127   1.084       .  S
C1123      C1124   1.404       .  A
C1123      O1128   1.372       .  S
C1124      C1125   1.402       .  A
C1125      C1126   1.408       .  A
C1125      H1129   1.084       .  S
C1126      O1130   1.371       .  S
O1128      H1132   0.992       .  S
O1130      H1131   0.992       .  S
C1133      C1134   1.401       .  A
C1133      C1138   1.412       .  A
C1134      C1135   1.396       .  A
C1134      H1139   1.084       .  S
C1135      C1136   1.416       .  A
C1135      O1140   1.372       .  S
C1136      C1137   1.406       .  A
C1137      C1138   1.406       .  A
C1137      H1141   1.083       .  S
C1138      O1142   1.373       .  S
O1140      H1144   0.992       .  S
O1142      H1143   0.992       .  S
C1145      C1146   1.408       .  A
C1145      C1150   1.416       .  A
C1146      C1147   1.406       .  A
C1146      H1151   1.083       .  S
C1147      C1148   1.410       .  A
C1147      O1152   1.372       .  S
C1148      C1149   1.403       .  A
C1149      C1150   1.402       .  A
C1149      H1153   1.084       .  S
C1150      O1154   1.371       .  S
O1152      H1156   0.992       .  S
O1154      H1155   0.992       .  S
C1157      C1158   1.408       .  A
C1157      C1162   1.413       .  A
C1158      C1159   1.403       .  A
C1158      H1163   1.083       .  S
C1159      C1160   1.410       .  A
C1159      O1164   1.373       .  S
C1160      C1161   1.408       .  A
C1161      C1162   1.406       .  A
C1161      H1165   1.083       .  S
C1162      O1166   1.371       .  S
O1164      H1168   0.992       .  S
O1166      H1167   0.992       .  S
C1169      C1170   1.401       .  A
C1169      C1174   1.405       .  A
C1170      C1171   1.393       .  A
C1170      H1175   1.084       .  S
C1171      C1172   1.412       .  A
C1171      O1176   1.372       .  S
C1172      C1173   1.408       .  A
C1173      C1174   1.400       .  A
C1173      H1177   1.084       .  S
C1174      O1178   1.372       .  S
O1176      H1180   0.992       .  S
O1178      H1179   0.992       .  S
C1181      C1182   1.407       .  A
C1181      C1186   1.406       .  A
C1182      C1183   1.400       .  A
C1182      H1187   1.084       .  S
C1183      C1184   1.408       .  A
C1183      O1188   1.372       .  S
C1184      C1185   1.407       .  A
C1185      C1186   1.392       .  A
C1185      H1189   1.084       .  S
C1186      O1190   1.373       .  S
O1188      H1192   0.992       .  S
O1190      H1191   0.992       .  S
C1193      C1194   1.403   1_455  A
C1194      C1195   1.397       .  A
C1194      H1199   1.084       .  S
C1195      C1196   1.415   1_655  A
C1195      O1200   1.372       .  S
C1197      C1198   1.407       .  A
C1197      H1201   1.083       .  S
C1198      O1202   1.372       .  S
O1200      H1204   0.992       .  S
O1202      H1203   0.992       .  S
C1205      C1206   1.408       .  A
C1206      C1207   1.403       .  A
C1206      H1211   1.083       .  S
C1207      C1208   1.409       .  A
C1207      O1212   1.372       .  S
C1209      C1210   1.403       .  A
C1209      H1213   1.084       .  S
C1210      O1214   1.372       .  S
O1212      H1216   0.992       .  S
O1214      H1215   0.992       .  S
C1217      C1218   1.404       .  A
C1218      C1219   1.406       .  A
C1218      H1223   1.083       .  S
C1219      C1220   1.409       .  A
C1219      O1224   1.371       .  S
C1221      C1222   1.401       .  A
C1221      H1225   1.084       .  S
C1222      O1226   1.372       .  S
O1224      H1228   0.991       .  S
O1226      H1227   0.992       .  S
C1229      C1230   1.406   1_455  A
C1230      C1231   1.398       .  A
C1230      H1235   1.083       .  S
C1231      C1232   1.409   1_655  A
C1231      O1236   1.373       .  S
C1233      C1234   1.405       .  A
C1233      H1237   1.083       .  S
C1234      O1238   1.371       .  S
O1236      H1240   0.992       .  S
O1238      H1239   0.992       .  S
C1241      C1246   1.412   1_545  A
C1242      C1243   1.393       .  A
C1242      H1247   1.083       .  S
C1243      O1248   1.373       .  S
C1244      C1245   1.403   1_545  A
C1245      C1246   1.401       .  A
C1245      H1249   1.084       .  S
C1246      O1250   1.372       .  S
O1248      H1252   0.992       .  S
O1250      H1251   0.992       .  S
C1253      C1258   1.417   1_545  A
C1254      C1255   1.403       .  A
C1254      H1259   1.083       .  S
C1255      O1260   1.372       .  S
C1256      C1257   1.398   1_545  A
C1257      C1258   1.393       .  A
C1257      H1261   1.084       .  S
C1258      O1262   1.372       .  S
O1260      H1264   0.992       .  S
O1262      H1263   0.992       .  S
C1265      C1266   1.401       .  A
C1266      C1267   1.392       .  A
C1266      H1271   1.084       .  S
C1267      C1268   1.412       .  A
C1267      O1272   1.372       .  S
C1269      C1270   1.402       .  A
C1269      H1273   1.084       .  S
C1270      O1274   1.371       .  S
O1272      H1276   0.992       .  S
O1274      H1275   0.992       .  S
C1277      C1282   1.414       .  A
C1278      C1279   1.392       .  A
C1278      H1283   1.083       .  S
C1279      O1284   1.371       .  S
C1280      C1281   1.400       .  A
C1281      C1282   1.402       .  A
C1281      H1285   1.084       .  S
C1282      O1286   1.372       .  S
O1284      H1288   0.992       .  S
O1286      H1287   0.992       .  S
