geometry optimzed in LAMMPS
_audit_creation_date              2020-11-30 
_audit_creation_method            'lammps2cif' 
_symmetry_space_group_name_H-M    'P1' 
_symmetry_Int_Tables_number       1 
_symmetry_cell_setting            triclinic 
loop_ 
_symmetry_equiv_pos_as_xyz 
  x,y,z 
_cell_length_a                    28.00925966 
_cell_length_b                    27.94186484369009 
_cell_length_c                    27.92243168290855 
_cell_angle_alpha                 89.98825139559717 
_cell_angle_beta                  90.00361313640929 
_cell_angle_gamma                 89.94106118762464 
loop_ 
_atom_site_label 
_atom_site_type_symbol 
_atom_site_fract_x 
_atom_site_fract_y 
_atom_site_fract_z 
_atom_site_charge 
O1          O  0.00113046  0.08353579  0.13404591    -0.80600
O2          O  0.99519796  0.07668034  0.86061551    -0.82200
O3          O  0.07735474  0.13780825  0.99683778    -0.79200
O4          O  0.92127846  0.13653689  0.99938990    -0.77600
O5          O  0.86464982  0.07773155  0.00174001    -0.79400
O6          O  0.13622721  0.08106047  0.99773437    -0.80300
O7          O  0.99478006  0.13507766  0.91808882    -0.81600
O8          O  0.00000343  0.13951751  0.07435215    -0.81900
Eu9        Eu  0.99936966  0.09749499  0.99725332     2.39200
O10         O  0.94983102  0.04760299  0.95104489    -0.89400
O11         O  0.04996123  0.05118186  0.04556864    -0.93000
C12         C  0.00022167  0.12719103  0.11889653     1.01700
C13         C  0.99417870  0.12093475  0.87410741     1.01500
C14         C  0.12164873  0.12491684  0.99779108     1.01400
C15         C  0.87759392  0.12212017  0.00095183     0.99300
H16         H  0.06600771  0.06908040  0.92710358     0.29000
O17         O  0.04706267  0.04904610  0.94783662    -1.01800
H18         H  0.93258335  0.06990879  0.06819070     0.29100
O19         O  0.95240352  0.04992510  0.04823549    -1.04400
O20         O  0.99819313  0.91794720  0.86637607    -0.81600
O21         O  0.00384199  0.92826319  0.14025738    -0.81100
O22         O  0.13335996  0.00203130  0.91578033    -0.79600
O23         O  0.86167960  0.99777651  0.92553847    -0.82900
O24         O  0.86658050  0.99830082  0.08115971    -0.80800
O25         O  0.14056548  0.00316394  0.07292097    -0.79400
O26         O  0.08079277  0.86477890  0.00045505    -0.80900
O27         O  0.92547434  0.86267108  0.00420627    -0.82900
O28         O  0.13708272  0.92360780  0.99474408    -0.79600
O29         O  0.86646744  0.91917820  0.00306242    -0.82300
O30         O  0.07378626  0.99909470  0.85983763    -0.78000
O31         O  0.08363610  0.00611263  0.13154986    -0.78000
O32         O  0.92486636  0.00214401  0.13830236    -0.77700
O33         O  0.91706703  0.99674028  0.86543322    -0.81200
O34         O  0.00095847  0.86171282  0.92582287    -0.80600
O35         O  0.00290916  0.86988650  0.08299436    -0.78900
Eu36       Eu  0.99729002  0.99867007  0.90199887     2.39800
Eu37       Eu  0.00295732  0.00391889  0.09676914     2.39600
Eu38       Eu  0.09754754  0.00215921  0.99627371     2.38400
Eu39       Eu  0.90404898  0.99899144  0.00208854     2.39900
Eu40       Eu  0.00246766  0.90431677  0.00225518     2.39800
O41         O  0.95434872  0.95283695  0.05097366    -0.93300
O42         O  0.04823903  0.95204693  0.95032881    -0.92200
C43         C  0.99938329  0.87416480  0.88137973     1.01800
C44         C  0.00335442  0.88412703  0.12698370     1.00500
C45         C  0.11815447  0.00063844  0.87209512     0.99900
C46         C  0.87354038  0.99687742  0.88092508     1.01900
C47         C  0.88061395  0.00000530  0.12513063     1.00900
C48         C  0.12751868  0.00501907  0.11723308     0.99700
C49         C  0.12442920  0.87923762  0.99719185     0.99800
C50         C  0.88114025  0.87528174  0.00355648     1.02400
H51         H  0.07211568  0.93528445  0.06807796     0.29800
O52         O  0.05144876  0.95455904  0.04828428    -1.05500
H53         H  0.93173530  0.92946108  0.93441561     0.31800
O54         O  0.95177812  0.95023480  0.95328006    -1.08100
O55         O  0.99942164  0.42674432  0.36074323    -0.80600
O56         O  0.99326690  0.41928550  0.63282943    -0.82200
O57         O  0.07587952  0.36288799  0.49295295    -0.79200
O58         O  0.91963690  0.36474651  0.49579753    -0.77600
O59         O  0.86263313  0.42332986  0.49623220    -0.79400
O60         O  0.13333848  0.42086341  0.49451688    -0.80300
O61         O  0.99608899  0.36216442  0.57418299    -0.81600
O62         O  0.99664437  0.36713940  0.41683033    -0.81900
Eu63       Eu  0.99797888  0.40383928  0.49642328     2.39200
O64         O  0.94935770  0.45186277  0.54539468    -0.89400
O65         O  0.04680352  0.45346187  0.44928374    -0.93000
C66         C  0.99784576  0.38227815  0.37318955     1.01700
C67         C  0.99361401  0.37538916  0.61845366     1.01500
C68         C  0.11990656  0.37668274  0.49264850     1.01400
C69         C  0.87579703  0.37897797  0.49587641     0.99300
H70         H  0.06628417  0.42969124  0.56619385     0.29000
O71         O  0.04678662  0.45044570  0.54662554    -1.01800
H72         H  0.93023163  0.43502512  0.42768247     0.29100
O73         O  0.95023395  0.45413433  0.44834908    -1.04400
O74         O  0.00006295  0.57589131  0.63706568    -0.81600
O75         O  0.00164890  0.58425088  0.36579737    -0.81100
O76         O  0.13377347  0.49689410  0.57815430    -0.79600
O77         O  0.86216976  0.49969775  0.57538307    -0.82900
O78         O  0.86297320  0.50465354  0.41845672    -0.80800
O79         O  0.13629079  0.50142949  0.42076924    -0.79400
O80         O  0.07847303  0.63796344  0.50388251    -0.80900
O81         O  0.92097653  0.63722070  0.50291543    -0.82900
O82         O  0.13485967  0.57870066  0.50193454    -0.79600
O83         O  0.86242091  0.58035633  0.49983427    -0.82300
O84         O  0.07601561  0.49737594  0.63614726    -0.78000
O85         O  0.07816692  0.50316413  0.36335680    -0.78000
O86         O  0.92148738  0.50617485  0.36146517    -0.77700
O87         O  0.91911091  0.49872590  0.63401206    -0.81200
O88         O  0.00174745  0.63560919  0.58117742    -0.80600
O89         O  0.00153131  0.64126616  0.42448496    -0.78900
Eu90       Eu  0.99793919  0.49864998  0.59550249     2.39800
Eu91       Eu  0.99936844  0.50417588  0.40197957     2.39600
Eu92       Eu  0.09553343  0.50010865  0.49907783     2.38400
Eu93       Eu  0.90192386  0.50209004  0.49739871     2.39900
Eu94       Eu  0.99976570  0.59865913  0.50139368     2.39800
O95         O  0.95076414  0.55233674  0.45079135    -0.93300
O96         O  0.04723349  0.54787981  0.54861368    -0.92200
C97         C  0.00158961  0.62041081  0.62486621     1.01800
C98         C  0.00235978  0.62820003  0.38016546     1.00500
C99         C  0.12004005  0.49654961  0.62230528     0.99900
C100        C  0.87528654  0.49877113  0.61966532     1.01900
C101        C  0.87722876  0.50586304  0.37447887     1.00900
C102        C  0.12234194  0.50226095  0.37663704     0.99700
C103        C  0.12220626  0.62315481  0.50343490     0.99800
C104        C  0.87676631  0.62417441  0.50215342     1.02400
H105        H  0.06846850  0.57105463  0.43251863     0.29800
O106        O  0.04811007  0.55090090  0.45179565    -1.05500
H107        H  0.93038153  0.56867252  0.56851814     0.31800
O108        O  0.95019013  0.54915389  0.54801739    -1.08100
O109        O  0.63920784  0.00098425  0.42632029    -0.80600
O110        O  0.36810095  0.00042883  0.41589290    -0.82200
O111        O  0.50840443  0.92221435  0.36316242    -0.79200
O112        O  0.50332632  0.08097779  0.36536362    -0.77600
O113        O  0.50151095  0.13788434  0.42425067    -0.79400
O114        O  0.50763151  0.86457001  0.42127119    -0.80300
O115        O  0.42687153  0.00186057  0.35922222    -0.81600
O116        O  0.58256946  0.00182667  0.36741804    -0.81900
Eu117      Eu  0.50311156  0.00123014  0.40306781     2.39200
O118        O  0.45326326  0.04889209  0.45107709    -0.89400
O119        O  0.55046628  0.95302429  0.45312706    -0.93000
C120        C  0.62629329  0.00127760  0.38180036     1.01700
C121        C  0.38257077  0.00146704  0.37204286     1.01500
C122        C  0.50952059  0.87805085  0.37713864     1.01400
C123        C  0.50269779  0.12492073  0.37984999     0.99300
H124        H  0.43467737  0.93120543  0.42775142     0.29000
O125        O  0.45336005  0.95126788  0.44876444    -1.01800
H126        H  0.56977357  0.07023457  0.43512098     0.29100
O127        O  0.54932048  0.04991892  0.45412840    -1.04400
O128        O  0.35958499  0.99727943  0.57217401    -0.81600
O129        O  0.63055986  0.00143338  0.58544304    -0.81100
O130        O  0.42294797  0.86290115  0.49510179    -0.79600
O131        O  0.41995439  0.13525750  0.49800399    -0.82900
O132        O  0.57794486  0.13666611  0.50486027    -0.80800
O133        O  0.57981127  0.86534694  0.50403947    -0.79400
O134        O  0.49382816  0.92064578  0.63660865    -0.80900
O135        O  0.49219246  0.07523787  0.63906362    -0.82900
O136        O  0.49793906  0.86407334  0.57767698    -0.79600
O137        O  0.49867491  0.13444087  0.58270589    -0.82300
O138        O  0.36444325  0.92011836  0.49466319    -0.78000
O139        O  0.63670679  0.92387958  0.50658341    -0.78000
O140        O  0.63633729  0.07948077  0.50553404    -0.77700
O141        O  0.36238314  0.07743543  0.49364790    -0.81200
O142        O  0.41498440  0.99679732  0.63220467    -0.80600
O143        O  0.57085263  0.99901246  0.64121639    -0.78900
Eu144      Eu  0.40298107  0.99919844  0.49617790     2.39800
Eu145      Eu  0.59653636  0.00149104  0.50405054     2.39600
Eu146      Eu  0.50083260  0.90346992  0.49930685     2.38400
Eu147      Eu  0.49921198  0.09737135  0.50232399     2.39900
Eu148      Eu  0.49516199  0.99873987  0.59715654     2.39800
O149        O  0.54596177  0.04857463  0.55212602    -0.93300
O150        O  0.44927054  0.95010385  0.54641622    -0.92200
C151        C  0.37156236  0.99679498  0.61676076     1.01800
C152        C  0.61530226  0.00005721  0.62912514     1.00500
C153        C  0.37872601  0.87614010  0.49455937     0.99900
C154        C  0.37597539  0.12162229  0.49466936     1.01900
C155        C  0.62219672  0.12342548  0.50559581     1.00900
C156        C  0.62358910  0.87965673  0.50638374     0.99700
C157        C  0.49551228  0.87692168  0.62200799     0.99800
C158        C  0.49514462  0.11943611  0.62638985     1.02400
H159        H  0.56585293  0.93195685  0.57098844     0.29800
O160        O  0.54669824  0.95184595  0.55023483    -1.05500
H161        H  0.42739560  0.06756922  0.56701316     0.31800
O162        O  0.44834987  0.04804166  0.54769324    -1.08100
O163        O  0.42051432  0.36447366  0.00312551    -0.80600
O164        O  0.42525875  0.63910988  0.99691158    -0.82200
O165        O  0.36241739  0.50415062  0.07484117    -0.79200
O166        O  0.36371675  0.50167685  0.91878759    -0.77600
O167        O  0.42140431  0.49660429  0.86103905    -0.79400
O168        O  0.41967698  0.50252733  0.13315057    -0.80300
O169        O  0.36658136  0.58231191  0.99570849    -0.81600
O170        O  0.36408824  0.42365785  0.99928246    -0.81900
Eu171      Eu  0.40335028  0.50244958  0.99748031     2.39200
O172        O  0.45289617  0.54940686  0.94877085    -0.89400
O173        O  0.45042762  0.45339078  0.04714572    -0.93000
C174        C  0.37683713  0.37923205  0.00163162     1.01700
C175        C  0.38104635  0.62618373  0.99604561     1.01500
C176        C  0.37567499  0.50356947  0.11908630     1.01400
C177        C  0.37738133  0.49850720  0.87471981     0.99300
H178        H  0.43270207  0.57150857  0.06578906     0.29000
O179        O  0.45215360  0.55095552  0.04608433    -1.01800
H180        H  0.43082257  0.43144395  0.93160335     0.29100
O181        O  0.45107971  0.45146472  0.95098300    -1.04400
O182        O  0.58182048  0.63549960  0.99542745    -0.81600
O183        O  0.57876121  0.36454064  0.00165234    -0.81100
O184        O  0.50212453  0.57969380  0.13407308    -0.79600
O185        O  0.49952371  0.57632107  0.86112991    -0.82900
O186        O  0.49868538  0.41818219  0.86414773    -0.80800
O187        O  0.49798416  0.42399563  0.13625703    -0.79400
O188        O  0.63544772  0.50267144  0.07543375    -0.80900
O189        O  0.63582958  0.49489045  0.91884921    -0.82900
O190        O  0.57826299  0.50276923  0.13385085    -0.79600
O191        O  0.57749177  0.49472817  0.86169180    -0.82300
O192        O  0.50602858  0.63760919  0.07636731    -0.78000
O193        O  0.49743139  0.36477806  0.07984488    -0.78000
O194        O  0.49611052  0.36160323  0.92355185    -0.77700
O195        O  0.49952554  0.63521149  0.91811595    -0.81200
O196        O  0.63790016  0.57609641  0.99584471    -0.80600
O197        O  0.63729374  0.42142775  0.00096645    -0.78900
Eu198      Eu  0.50232939  0.59767185  0.99725660     2.39800
Eu199      Eu  0.49916282  0.40307321  0.00061535     2.39600
Eu200      Eu  0.49935875  0.50152907  0.09510801     2.38400
Eu201      Eu  0.49962893  0.49813410  0.90117984     2.39900
Eu202      Eu  0.59656071  0.49880254  0.99735991     2.39800
O203        O  0.54784045  0.44940106  0.94999369    -0.93300
O204        O  0.54912574  0.54822142  0.04597836    -0.92200
C205        C  0.62553617  0.62058853  0.99543429     1.01800
C206        C  0.62310623  0.37757064  0.00213228     1.00500
C207        C  0.50508394  0.62373278  0.12059061     0.99900
C208        C  0.49900213  0.62063396  0.87428609     1.01900
C209        C  0.49664398  0.37451799  0.87923318     1.00900
C210        C  0.49740208  0.37955587  0.12366563     0.99700
C211        C  0.62216643  0.50351995  0.11962734     0.99800
C212        C  0.62162150  0.49401007  0.87488765     1.02400
H213        H  0.56789806  0.43223585  0.06845400     0.29800
O214        O  0.54822231  0.45178804  0.04798887    -1.05500
H215        H  0.56925641  0.56673752  0.92759466     0.31800
O216        O  0.54918334  0.54763640  0.94808176    -1.08100
C217        C  0.50318276  0.16326164  0.34299019    -0.01800
C218        C  0.50976964  0.21122402  0.35621972    -0.09800
C219        C  0.50920299  0.24764282  0.32197784    -0.18600
C220        C  0.50176809  0.23735401  0.27294434     0.03800
C221        C  0.49481219  0.18873029  0.25968870     0.17900
C222        C  0.49609428  0.15237688  0.29444354    -0.20100
C223        C  0.48596574  0.17664424  0.21186869    -0.21300
C224        C  0.48348567  0.21188009  0.17682278    -0.19900
C225        C  0.49077973  0.26000972  0.18852852     0.19300
C226        C  0.50052926  0.27346838  0.23666718     0.01500
C227        C  0.50895792  0.32242438  0.24624115    -0.14600
C228        C  0.50737426  0.35646415  0.20970463    -0.12300
C229        C  0.49746992  0.34312637  0.16232909     0.01000
C230        C  0.48896047  0.29471297  0.15213838    -0.24500
H231        H  0.51535109  0.22085871  0.39337238     0.09000
H232        H  0.51407965  0.28351825  0.33519836     0.12600
H233        H  0.49062329  0.11552375  0.28362390     0.11300
H234        H  0.48048637  0.13966503  0.20153980     0.12500
H235        H  0.47620008  0.20134060  0.14018939     0.11500
H236        H  0.51750271  0.33557150  0.28146865     0.08600
H237        H  0.51463377  0.39346239  0.21867595     0.11900
H238        H  0.48124342  0.28382013  0.11568035     0.13700
C239        C  0.51223645  0.83964040  0.34041479    -0.01800
C240        C  0.50209019  0.79215693  0.35319119    -0.09800
C241        C  0.50239082  0.75567809  0.31913128    -0.18600
C242        C  0.51290116  0.76532007  0.27057397     0.03800
C243        C  0.52477726  0.81316404  0.25791077     0.17900
C244        C  0.52419746  0.84971455  0.29265544    -0.20100
C245        C  0.53655959  0.82435309  0.21049181    -0.21300
C246        C  0.53578058  0.78929203  0.17510032    -0.19900
C247        C  0.52287444  0.74216416  0.18610455     0.19300
C248        C  0.51151064  0.72940296  0.23408521     0.01500
C249        C  0.49841466  0.68142582  0.24325288    -0.14600
C250        C  0.49647617  0.64777747  0.20643851    -0.12300
C251        C  0.50741623  0.66041429  0.15905854     0.01000
C252        C  0.52079687  0.70780566  0.14925535    -0.24500
H253        H  0.49297632  0.78302157  0.38976986     0.09000
H254        H  0.49391909  0.72037464  0.33204355     0.12600
H255        H  0.53282337  0.88611039  0.28236563     0.11300
H256        H  0.54604139  0.86062378  0.20059005     0.12500
H257        H  0.54473633  0.79928027  0.13868809     0.11500
H258        H  0.48897217  0.66871271  0.27840584     0.08600
H259        H  0.48584631  0.61157303  0.21528768     0.11900
H260        H  0.52967014  0.71805975  0.11288128     0.13700
C261        C  0.49514851  0.83860982  0.65845558    -0.01800
C262        C  0.50753667  0.79184422  0.64546960    -0.09800
C263        C  0.50798631  0.75525842  0.67919749    -0.18600
C264        C  0.49592128  0.76417333  0.72749937     0.03800
C265        C  0.48264570  0.81155146  0.74053434     0.17900
C266        C  0.48267105  0.84823911  0.70616481    -0.20100
C267        C  0.46944112  0.82198697  0.78774378    -0.21300
C268        C  0.46955877  0.78635856  0.82248888    -0.19900
C269        C  0.48327763  0.73958486  0.81090642     0.19300
C270        C  0.49663581  0.72777554  0.76324484     0.01500
C271        C  0.51052410  0.68008487  0.75351095    -0.14600
C272        C  0.51098232  0.64563846  0.78949627    -0.12300
C273        C  0.49788950  0.65741343  0.83638257     0.01000
C274        C  0.48400388  0.70451366  0.84683691    -0.24500
H275        H  0.51741951  0.78333622  0.60894167     0.09000
H276        H  0.51789882  0.72042455  0.66607619     0.12600
H277        H  0.47263463  0.88425720  0.71658370     0.11300
H278        H  0.45900834  0.85795415  0.79787816     0.12500
H279        H  0.45920689  0.79553192  0.85875403     0.11500
H280        H  0.52160826  0.66811654  0.71859919     0.08600
H281        H  0.52223570  0.60962678  0.78054828     0.11900
H282        H  0.47353061  0.71394879  0.88301890     0.13700
C283        C  0.49462578  0.15529254  0.66494997    -0.01800
C284        C  0.46307642  0.15069415  0.70355705    -0.09800
C285        C  0.46196733  0.18508720  0.73986607    -0.18600
C286        C  0.49327445  0.22482681  0.73895425     0.03800
C287        C  0.52653129  0.22792790  0.70053147     0.17900
C288        C  0.52648133  0.19368408  0.66383307    -0.20100
C289        C  0.55954899  0.26535762  0.69867286    -0.21300
C290        C  0.55946323  0.30084142  0.73340148    -0.19900
C291        C  0.52630252  0.29981057  0.77078930     0.19300
C292        C  0.49291465  0.26161013  0.77453131     0.01500
C293        C  0.46062570  0.26221917  0.81355259    -0.14600
C294        C  0.46208982  0.29884242  0.84758484    -0.12300
C295        C  0.49484167  0.33634684  0.84316135     0.01000
C296        C  0.52652687  0.33688918  0.80459066    -0.24500
H297        H  0.43850372  0.12079703  0.70515760     0.09000
H298        H  0.43630437  0.17954186  0.76806690     0.12600
H299        H  0.55169354  0.19657493  0.63447959     0.11300
H300        H  0.58539486  0.26745164  0.66986160     0.12500
H301        H  0.58529488  0.32957758  0.73074845     0.11500
H302        H  0.43395567  0.23496277  0.81882735     0.08600
H303        H  0.43710976  0.29821760  0.87722222     0.11900
H304        H  0.55212991  0.36584022  0.80149170     0.13700
C305        C  0.83788259  0.34188857  0.49596350    -0.01800
C306        C  0.78976756  0.35526957  0.49917154    -0.09800
C307        C  0.75381764  0.32090410  0.50120031    -0.18600
C308        C  0.76470707  0.27151300  0.50016943     0.03800
C309        C  0.81336323  0.25792007  0.49516465     0.17900
C310        C  0.84932638  0.29295875  0.49340182    -0.20100
C311        C  0.82578252  0.20945708  0.49194804    -0.21300
C312        C  0.79077918  0.17416105  0.49328319    -0.19900
C313        C  0.74259170  0.18641387  0.49886657     0.19300
C314        C  0.72898628  0.23522809  0.50331664     0.01500
C315        C  0.68020153  0.24562227  0.51109111    -0.14600
C316        C  0.64613014  0.20934465  0.51225378    -0.12300
C317        C  0.65925336  0.16136403  0.50604857     0.01000
C318        C  0.70782196  0.15014380  0.49995073    -0.24500
H319        H  0.77961673  0.39265652  0.50053399     0.09000
H320        H  0.71780975  0.33429910  0.50318905     0.12600
H321        H  0.88631955  0.28196044  0.49016375     0.11300
H322        H  0.86279012  0.19878871  0.48796930     0.12500
H323        H  0.80150168  0.13700601  0.49017235     0.11500
H324        H  0.66711924  0.28142856  0.51675252     0.08600
H325        H  0.60915047  0.21913683  0.51802003     0.11900
H326        H  0.71868511  0.11314231  0.49560330     0.13700
C327        C  0.84015923  0.66235713  0.50457814    -0.01800
C328        C  0.85398588  0.71026293  0.50977391    -0.09800
C329        C  0.82011082  0.74667967  0.51205414    -0.18600
C330        C  0.77081433  0.73644506  0.50905967     0.03800
C331        C  0.75682361  0.68776199  0.50433664     0.17900
C332        C  0.79135088  0.65139556  0.50217229    -0.20100
C333        C  0.70845692  0.67563442  0.50150246    -0.21300
C334        C  0.67355265  0.71093917  0.50263226    -0.19900
C335        C  0.68618722  0.75920619  0.50650144     0.19300
C336        C  0.73496369  0.77273041  0.51008641     0.01500
C337        C  0.74567681  0.82202146  0.51393856    -0.14600
C338        C  0.70955582  0.85632993  0.51325241    -0.12300
C339        C  0.66155007  0.84286908  0.50885963     0.01000
C340        C  0.65019074  0.79409903  0.50613727    -0.24500
H341        H  0.89135318  0.71991727  0.51212210     0.09000
H342        H  0.83383664  0.78243647  0.51602446     0.12600
H343        H  0.78005480  0.61448594  0.49836175     0.11300
H344        H  0.69754165  0.63858839  0.49807544     0.12500
H345        H  0.63640105  0.70043349  0.50001622     0.11500
H346        H  0.78157402  0.83541238  0.51709197     0.08600
H347        H  0.71950300  0.89369436  0.51583702     0.11900
H348        H  0.61321234  0.78310779  0.50297643     0.13700
C349        C  0.15806010  0.33958694  0.49050513    -0.01800
C350        C  0.20611482  0.35303551  0.49469118    -0.09800
C351        C  0.24255431  0.31900825  0.49374764    -0.18600
C352        C  0.23236707  0.26973706  0.48870013     0.03800
C353        C  0.18367242  0.25597157  0.48454879     0.17900
C354        C  0.14719485  0.29077403  0.48510487    -0.20100
C355        C  0.17166800  0.20747738  0.48064127    -0.21300
C356        C  0.20690472  0.17228486  0.48170719    -0.19900
C357        C  0.25516828  0.18466432  0.48593485     0.19300
C358        C  0.26865383  0.23363426  0.48861105     0.01500
C359        C  0.31790104  0.24430778  0.49134468    -0.14600
C360        C  0.35208473  0.20801539  0.49299117    -0.12300
C361        C  0.33878934  0.15964938  0.49184838     0.01000
C362        C  0.29005598  0.14832483  0.48776950    -0.24500
H363        H  0.21588670  0.39025715  0.49920282     0.09000
H364        H  0.27831192  0.33252249  0.49782962     0.12600
H365        H  0.11026115  0.27966748  0.48185145     0.11300
H366        H  0.13466851  0.19661871  0.47744184     0.12500
H367        H  0.19629328  0.13506990  0.47933070     0.11500
H368        H  0.33133752  0.28039116  0.49220141     0.08600
H369        H  0.38931489  0.21816642  0.49540291     0.11900
H370        H  0.27909277  0.11115753  0.48621563     0.13700
C371        C  0.16096595  0.65935790  0.50382269    -0.01800
C372        C  0.20661214  0.64696785  0.48737259    -0.09800
C373        C  0.24334606  0.68059804  0.48594620    -0.18600
C374        C  0.23583799  0.72821053  0.50128515     0.03800
C375        C  0.18991501  0.74036846  0.51943367     0.17900
C376        C  0.15298255  0.70619493  0.52015414    -0.20100
C377        C  0.18104315  0.78666373  0.53642113    -0.21300
C378        C  0.21638784  0.82155586  0.53461675    -0.19900
C379        C  0.26144717  0.81114480  0.51555124     0.19300
C380        C  0.27205920  0.76422054  0.49897374     0.01500
C381        C  0.31831115  0.75562235  0.48037579    -0.14600
C382        C  0.35248208  0.79196792  0.47861081    -0.12300
C383        C  0.34178161  0.83818039  0.49484120     0.01000
C384        C  0.29600863  0.84750463  0.51302099    -0.24500
H385        H  0.21392666  0.61108424  0.47463428     0.09000
H386        H  0.27715516  0.66812907  0.47244913     0.12600
H387        H  0.11801923  0.71607129  0.53361964     0.11300
H388        H  0.14636682  0.79608578  0.55086070     0.12500
H389        H  0.20823926  0.85712969  0.54778403     0.11500
H390        H  0.32928185  0.72124191  0.46683426     0.08600
H391        H  0.38748524  0.78384116  0.46421608     0.11900
H392        H  0.28746132  0.88302653  0.52613235     0.13700
C393        C  0.84037021  0.50657366  0.33619209    -0.01800
C394        C  0.85381305  0.51043234  0.28797702    -0.09800
C395        C  0.81966420  0.51076161  0.25161573    -0.18600
C396        C  0.77043500  0.50703388  0.26216706     0.03800
C397        C  0.75683550  0.50298002  0.31105447     0.17900
C398        C  0.79161489  0.50291918  0.34735691    -0.20100
C399        C  0.70859393  0.49880685  0.32346833    -0.21300
C400        C  0.67344475  0.49845179  0.28833329    -0.19900
C401        C  0.68562663  0.50241676  0.23990697     0.19300
C402        C  0.73427734  0.50691579  0.22605461     0.01500
C403        C  0.74455635  0.51098187  0.17665625    -0.14600
C404        C  0.70819442  0.51009801  0.14259993    -0.12300
C405        C  0.66028403  0.50524833  0.15635347     0.01000
C406        C  0.64932648  0.50170013  0.20521829    -0.24500
H407        H  0.89108502  0.51326510  0.27805818     0.09000
H408        H  0.83311441  0.51380644  0.21561994     0.12600
H409        H  0.78055083  0.49971506  0.38442545     0.11300
H410        H  0.69795618  0.49564910  0.36065285     0.12500
H411        H  0.63643550  0.49500616  0.29913600     0.11500
H412        H  0.78030706  0.51483891  0.16302345     0.08600
H413        H  0.71788744  0.51322634  0.10517174     0.11900
H414        H  0.61245262  0.49797613  0.21642501     0.13700
C415        C  0.15918159  0.50228922  0.33819252    -0.01800
C416        C  0.14532834  0.50594586  0.29003690    -0.09800
C417        C  0.17907291  0.50631164  0.25331720    -0.18600
C418        C  0.22840097  0.50286224  0.26332156     0.03800
C419        C  0.24248869  0.49827249  0.31206063     0.17900
C420        C  0.20806350  0.49838746  0.34884696    -0.20100
C421        C  0.29085522  0.49337987  0.32377307    -0.21300
C422        C  0.32556248  0.49287573  0.28814192    -0.19900
C423        C  0.31291236  0.49807846  0.23992235     0.19300
C424        C  0.26418440  0.50353981  0.22676529     0.01500
C425        C  0.25352129  0.50985316  0.17763914    -0.14600
C426        C  0.28961234  0.51009195  0.14315651    -0.12300
C427        C  0.33762241  0.50399749  0.15617417     0.01000
C428        C  0.34887154  0.49810500  0.20479950    -0.24500
H429        H  0.10797482  0.50869433  0.28038806     0.09000
H430        H  0.16524017  0.50898538  0.21742868     0.12600
H431        H  0.21945606  0.49514200  0.38581536     0.11300
H432        H  0.30193220  0.48967399  0.36077930     0.12500
H433        H  0.36265572  0.48875990  0.29843339     0.11500
H434        H  0.21769551  0.51510928  0.16462852     0.08600
H435        H  0.27967443  0.51518231  0.10600770     0.11900
H436        H  0.38578916  0.49345800  0.21551693     0.13700
C437        C  0.15779018  0.49479797  0.65939466    -0.01800
C438        C  0.20211558  0.47409028  0.64882939    -0.09800
C439        C  0.23847283  0.47266139  0.68296437    -0.18600
C440        C  0.23192806  0.49259723  0.72904919     0.03800
C441        C  0.18696956  0.51395991  0.73951772     0.17900
C442        C  0.15035070  0.51441268  0.70500662    -0.20100
C443        C  0.17895619  0.53513788  0.78422192    -0.21300
C444        C  0.21460357  0.53557587  0.81888007    -0.19900
C445        C  0.25913509  0.51467684  0.80982656     0.19300
C446        C  0.26846620  0.49265679  0.76487173     0.01500
C447        C  0.31407307  0.47197341  0.75774308    -0.14600
C448        C  0.34913843  0.47417427  0.79325567    -0.12300
C449        C  0.33991206  0.49636093  0.83728704     0.01000
C450        C  0.29456080  0.51603672  0.84547001    -0.24500
H451        H  0.20869068  0.45849035  0.61392096     0.09000
H452        H  0.27139229  0.45604563  0.67193930     0.12600
H453        H  0.11631821  0.53098598  0.71334192     0.11300
H454        H  0.14490815  0.55170261  0.79238578     0.12500
H455        H  0.20729722  0.55248749  0.85303870     0.11500
H456        H  0.32389311  0.45392415  0.72511345     0.08600
H457        H  0.38360465  0.45795516  0.78632795     0.11900
H458        H  0.28702523  0.53325030  0.87944976     0.13700
C459        C  0.83723971  0.49761793  0.65644277    -0.01800
C460        C  0.78915002  0.50050724  0.64288460    -0.09800
C461        C  0.75295832  0.49923122  0.67703809    -0.18600
C462        C  0.76362993  0.49499539  0.72634163     0.03800
C463        C  0.81242912  0.49194491  0.74000167     0.17900
C464        C  0.84854866  0.49330653  0.70520067    -0.20100
C465        C  0.82494218  0.48762942  0.78833275    -0.21300
C466        C  0.78994472  0.48656071  0.82358790    -0.19900
C467        C  0.74159329  0.48979977  0.81135414     0.19300
C468        C  0.72770245  0.49389780  0.76253890     0.01500
C469        C  0.67843454  0.49699413  0.75211398    -0.14600
C470        C  0.64453029  0.49651705  0.78853903    -0.12300
C471        C  0.65825893  0.49290511  0.83666685     0.01000
C472        C  0.70699682  0.48929964  0.84775676    -0.24500
H473        H  0.77919393  0.50386383  0.60554713     0.09000
H474        H  0.71704825  0.50169887  0.66350637     0.12600
H475        H  0.88558242  0.49087482  0.71625213     0.11300
H476        H  0.86208633  0.48520556  0.79896721     0.12500
H477        H  0.80079356  0.48336652  0.86071422     0.11500
H478        H  0.66473820  0.50008119  0.71622200     0.08600
H479        H  0.60722737  0.49944943  0.77872857     0.11900
H480        H  0.71818664  0.48637502  0.88481793     0.13700
C481        C  0.84471931  0.83660889  0.00233096    -0.01800
C482        C  0.85853254  0.78829338  0.00202657    -0.09800
C483        C  0.82453854  0.75175959  0.00001027    -0.18600
C484        C  0.77516349  0.76230358  0.99824333     0.03800
C485        C  0.76138529  0.81129758  0.99753719     0.17900
C486        C  0.79591180  0.84765118  0.99991741    -0.20100
C487        C  0.71314201  0.82388081  0.99430766    -0.21300
C488        C  0.67806654  0.78885936  0.99207729    -0.19900
C489        C  0.69024863  0.74032655  0.99373405     0.19300
C490        C  0.73893798  0.72621274  0.99708484     0.01500
C491        C  0.74902318  0.67667494  0.99977911    -0.14600
C492        C  0.71235743  0.64279372  0.99892321    -0.12300
C493        C  0.66435273  0.65687284  0.99532421     0.01000
C494        C  0.65376641  0.70586915  0.99258102    -0.24500
H495        H  0.89593089  0.77846122  0.00320113     0.09000
H496        H  0.83808660  0.71565832  0.99955024     0.12600
H497        H  0.78456462  0.88475779  0.99955249     0.11300
H498        H  0.70241995  0.86115260  0.99343504     0.12500
H499        H  0.64103463  0.79986267  0.98954473     0.11500
H500        H  0.78482570  0.66294420  0.00316435     0.08600
H501        H  0.72182355  0.60528467  0.00148011     0.11900
H502        H  0.61690132  0.71743979  0.98994551     0.13700
C503        C  0.66013081  0.33945654  0.00426963    -0.01800
C504        C  0.64670872  0.29127588  0.00157289    -0.09800
C505        C  0.68076000  0.25492650  0.00239034    -0.18600
C506        C  0.72999636  0.26538448  0.00579300     0.03800
C507        C  0.74370723  0.31421343  0.00962342     0.17900
C508        C  0.70890071  0.35061685  0.00889091    -0.20100
C509        C  0.79206921  0.32637292  0.01356977    -0.21300
C510        C  0.82717720  0.29108103  0.01285405    -0.19900
C511        C  0.81480173  0.24274548  0.00828655     0.19300
C512        C  0.76601905  0.22916270  0.00502943     0.01500
C513        C  0.75541044  0.17988952  0.00063188    -0.14600
C514        C  0.79156692  0.14566510  0.99936082    -0.12300
C515        C  0.83962500  0.15906493  0.00227790     0.01000
C516        C  0.85095504  0.20784205  0.00679189    -0.24500
H517        H  0.60948500  0.28134668  0.99835693     0.09000
H518        H  0.66716735  0.21899792  0.99994062     0.12600
H519        H  0.71995385  0.38769859  0.01155412     0.11300
H520        H  0.80285332  0.36347700  0.01678239     0.12500
H521        H  0.86429380  0.30170066  0.01557507     0.11500
H522        H  0.71952951  0.16641295  0.99792214     0.08600
H523        H  0.78161136  0.10838288  0.99583037     0.11900
H524        H  0.88799420  0.21881435  0.00929397     0.13700
C525        C  0.34428851  0.66433516  0.99580678    -0.01800
C526        C  0.35757857  0.71264894  0.99413485    -0.09800
C527        C  0.32318038  0.74874351  0.99452883    -0.18600
C528        C  0.27394106  0.73770530  0.99652612     0.03800
C529        C  0.26061143  0.68866638  0.99805923     0.17900
C530        C  0.29560343  0.65271888  0.99767897    -0.20100
C531        C  0.21240033  0.67570415  0.99989696    -0.21300
C532        C  0.17692290  0.71050257  0.00002117    -0.19900
C533        C  0.18879773  0.75912417  0.99839479     0.19300
C534        C  0.23748047  0.77345997  0.99679815     0.01500
C535        C  0.24750819  0.82298614  0.99538111    -0.14600
C536        C  0.21086573  0.85673830  0.99523169    -0.12300
C537        C  0.16287520  0.84262484  0.99669517     0.01000
C538        C  0.15218023  0.79355950  0.99830337    -0.24500
H539        H  0.39485266  0.72282392  0.99253424     0.09000
H540        H  0.33643310  0.78487500  0.99314758     0.12600
H541        H  0.28471119  0.61551727  0.99899430     0.11300
H542        H  0.20203641  0.63835427  0.00110823     0.12500
H543        H  0.13991209  0.69928934  0.00131776     0.11500
H544        H  0.28328840  0.83699221  0.99437668     0.08600
H545        H  0.22042405  0.89426920  0.99414191     0.11900
H546        H  0.11526259  0.78199065  0.99951303     0.13700
C547        C  0.15818871  0.16326600  0.99910652    -0.01800
C548        C  0.14673318  0.20963431  0.98386147    -0.09800
C549        C  0.18081115  0.24602066  0.98448959    -0.18600
C550        C  0.22783905  0.23736553  0.00086257     0.03800
C551        C  0.23910749  0.19049143  0.01721799     0.17900
C552        C  0.20451879  0.15403575  0.01594678    -0.20100
C553        C  0.28489010  0.18022143  0.03457454    -0.21300
C554        C  0.32010752  0.21529848  0.03521943    -0.19900
C555        C  0.31048150  0.26153790  0.01844123     0.19300
C556        C  0.26409468  0.27337895  0.00136526     0.01500
C557        C  0.25616558  0.32067867  0.98517411    -0.14600
C558        C  0.29266107  0.35457990  0.98570197    -0.12300
C559        C  0.33844073  0.34274718  0.00207380     0.01000
C560        C  0.34708024  0.29601504  0.01843608    -0.24500
H561        H  0.11125806  0.21782169  0.97072506     0.09000
H562        H  0.16911005  0.28048814  0.97181893     0.12600
H563        H  0.21364590  0.11844325  0.02847544     0.11300
H564        H  0.29363072  0.14468465  0.04747290     0.12500
H565        H  0.35525816  0.20607487  0.04861091     0.11500
H566        H  0.22222007  0.33270351  0.97163173     0.08600
H567        H  0.28500241  0.39025189  0.97255892     0.11900
H568        H  0.38229093  0.28646495  0.03149613     0.13700
C569        C  0.83423817  0.99609017  0.84526023    -0.01800
C570        C  0.78678725  0.00349540  0.85967668    -0.09800
C571        C  0.74960604  0.00365723  0.82635112    -0.18600
C572        C  0.75862106  0.99634819  0.77708223     0.03800
C573        C  0.80674978  0.98859618  0.76268426     0.17900
C574        C  0.84375928  0.98834894  0.79660353    -0.20100
C575        C  0.81787576  0.98162539  0.71437078    -0.21300
C576        C  0.78236263  0.98305638  0.67975404    -0.19900
C577        C  0.73473101  0.99082669  0.69263016     0.19300
C578        C  0.72188404  0.99693453  0.74148919     0.01500
C579        C  0.67290563  0.00330655  0.75235047    -0.14600
C580        C  0.63844681  0.00416307  0.71609229    -0.12300
C581        C  0.65157286  0.99907715  0.66786271     0.01000
C582        C  0.69988682  0.99233366  0.65663989    -0.24500
H583        H  0.77820176  0.00972436  0.89698340     0.09000
H584        H  0.71430285  0.01011160  0.84025399     0.12600
H585        H  0.88018363  0.98232799  0.78489589     0.11300
H586        H  0.85443444  0.97554154  0.70317962     0.12500
H587        H  0.79225850  0.97802808  0.64256336     0.11500
H588        H  0.66003470  0.00748821  0.78847269     0.08600
H589        H  0.60136975  0.00912505  0.72596283     0.11900
H590        H  0.71060380  0.98775102  0.61961015     0.13700
C591        C  0.15407383  0.00083982  0.83321603    -0.01800
C592        C  0.14031698  0.99306877  0.78555199    -0.09800
C593        C  0.17406638  0.99258162  0.74882982    -0.18600
C594        C  0.22302826  0.99994087  0.75862381     0.03800
C595        C  0.23677181  0.00762977  0.80704553     0.17900
C596        C  0.20244085  0.00833250  0.84353362    -0.20100
C597        C  0.28481758  0.01404230  0.81899378    -0.21300
C598        C  0.31982055  0.01224314  0.78391524    -0.19900
C599        C  0.30751786  0.00486370  0.73594986     0.19300
C600        C  0.25893014  0.99936519  0.72235709     0.01500
C601        C  0.24854640  0.99370264  0.67309914    -0.14600
C602        C  0.28499840  0.99270063  0.63904444    -0.12300
C603        C  0.33291117  0.99712743  0.65285164     0.01000
C604        C  0.34375000  0.00324484  0.70145996    -0.24500
H605        H  0.10324108  0.98686270  0.77645953     0.09000
H606        H  0.16071488  0.98574122  0.71330703     0.12600
H607        H  0.21362754  0.01446307  0.88019839     0.11300
H608        H  0.29547563  0.01993375  0.85584128     0.12500
H609        H  0.35680687  0.01679817  0.79437944     0.11500
H610        H  0.21265992  0.99036589  0.65964027     0.08600
H611        H  0.27548185  0.98837952  0.60169340     0.11900
H612        H  0.38058865  0.00737354  0.71265244     0.13700
C613        C  0.16508890  0.00546177  0.15474337    -0.01800
C614        C  0.15189099  0.00444049  0.20312800    -0.09800
C615        C  0.18612226  0.00414880  0.23918750    -0.18600
C616        C  0.23536729  0.00480971  0.22828154     0.03800
C617        C  0.24893983  0.00632503  0.17924821     0.17900
C618        C  0.21390204  0.00655259  0.14305405    -0.20100
C619        C  0.29736469  0.00748880  0.16673533    -0.21300
C620        C  0.33262034  0.00691632  0.20192262    -0.19900
C621        C  0.32035672  0.00502576  0.25051684     0.19300
C622        C  0.27150018  0.00395116  0.26432744     0.01500
C623        C  0.26083944  0.00185409  0.31370627    -0.14600
C624        C  0.29693203  0.00101681  0.34784350    -0.12300
C625        C  0.34514207  0.00218803  0.33442775     0.01000
C626        C  0.35661381  0.00414947  0.28548129    -0.24500
H627        H  0.11464615  0.00363409  0.21352391     0.09000
H628        H  0.17257810  0.00336591  0.27524438     0.12600
H629        H  0.22474897  0.00752985  0.10579568     0.11300
H630        H  0.30806215  0.00879016  0.12945630     0.12500
H631        H  0.36975072  0.00781305  0.19103421     0.11500
H632        H  0.22495552  0.00070091  0.32742694     0.08600
H633        H  0.28666571  0.99941866  0.38520803     0.11900
H634        H  0.39372521  0.00503898  0.27449008     0.13700
C635        C  0.66354240  0.00088524  0.34383796    -0.01800
C636        C  0.64989706  0.00179553  0.29544972    -0.09800
C637        C  0.68378967  0.00156877  0.25894718    -0.18600
C638        C  0.73311623  0.00023949  0.26936541     0.03800
C639        C  0.74702106  0.99849109  0.31834368     0.17900
C640        C  0.71238546  0.99914540  0.35495042    -0.20100
C641        C  0.79544459  0.99588040  0.33047054    -0.21300
C642        C  0.83040879  0.99510143  0.29504988    -0.19900
C643        C  0.81794160  0.99747902  0.24654441     0.19300
C644        C  0.76908289  0.00030118  0.23298570     0.01500
C645        C  0.75841107  0.00332389  0.18359719    -0.14600
C646        C  0.79457054  0.00306904  0.14927709    -0.12300
C647        C  0.84280283  0.99994191  0.16258248     0.01000
C648        C  0.85413195  0.99722256  0.21149984    -0.24500
H649        H  0.61256053  0.00274181  0.28537743     0.09000
H650        H  0.67004646  0.00213697  0.22293194     0.12600
H651        H  0.72356975  0.99806782  0.39210523     0.11300
H652        H  0.80638667  0.99427632  0.36766579     0.12500
H653        H  0.86754764  0.99289847  0.30571666     0.11500
H654        H  0.72248589  0.00625884  0.17016102     0.08600
H655        H  0.78443237  0.00563306  0.11192623     0.11900
H656        H  0.89119427  0.99489506  0.22245030     0.13700
C657        C  0.99130097  0.33784017  0.65574669    -0.01800
C658        C  0.96715766  0.34664713  0.69878044    -0.09800
C659        C  0.96618703  0.31237663  0.73515573    -0.18600
C660        C  0.99002064  0.26802032  0.72988820     0.03800
C661        C  0.01392175  0.25900056  0.68583109     0.17900
C662        C  0.01414241  0.29366691  0.64928635    -0.20100
C663        C  0.03755539  0.21545605  0.67851325    -0.21300
C664        C  0.03723767  0.18017288  0.71364192    -0.19900
C665        C  0.01393776  0.18780362  0.75731694     0.19300
C666        C  0.99076241  0.23219923  0.76650506     0.01500
C667        C  0.96970221  0.23884327  0.81207659    -0.14600
C668        C  0.97095654  0.20270026  0.84657863    -0.12300
C669        C  0.99257909  0.15853303  0.83681726     0.01000
C670        C  0.01397948  0.15132101  0.79203663    -0.24500
H671        H  0.94864438  0.38027215  0.70429793     0.09000
H672        H  0.94635446  0.32168990  0.76686878     0.12600
H673        H  0.03299583  0.28663039  0.61609573     0.11300
H674        H  0.05607166  0.20843915  0.64515858     0.12500
H675        H  0.05545911  0.14666331  0.70661545     0.11500
H676        H  0.95240275  0.27170476  0.82240710     0.08600
H677        H  0.95444777  0.20924595  0.88106160     0.11900
H678        H  0.03164537  0.11758019  0.78456453     0.13700
C679        C  0.00282814  0.65649322  0.66382949    -0.01800
C680        C  0.00180225  0.64219882  0.71199486    -0.09800
C681        C  0.00121491  0.67596718  0.74884175    -0.18600
C682        C  0.00165341  0.72554593  0.73871937    -0.01800
C683        C  0.00407649  0.73982873  0.68988689     0.17900
C684        C  0.00452284  0.70551150  0.65321570    -0.20100
C685        C  0.00587685  0.78835770  0.67777465    -0.21300
C686        C  0.00537614  0.82322127  0.71314066    -0.19900
C687        C  0.00248111  0.81045308  0.76146916     0.19300
C688        C  0.00006476  0.76149168  0.77510588     0.01500
C689        C  0.99587182  0.75085756  0.82447045    -0.14600
C690        C  0.99536147  0.78730816  0.85871037    -0.12300
C691        C  0.99890111  0.83550973  0.84502748     0.01000
C692        C  0.00204847  0.84663777  0.79621054    -0.24500
H693        H  0.00107843  0.60461300  0.72145798     0.09000
H694        H  0.00052625  0.66209040  0.78483664     0.12600
H695        H  0.00588856  0.71720732  0.61621263     0.11300
H696        H  0.00784804  0.79946062  0.64063349     0.12500
H697        H  0.00707166  0.86051109  0.70257288     0.11500
H698        H  0.99272301  0.71480062  0.83778059     0.08600
H699        H  0.99220356  0.77754676  0.89612377     0.11900
H700        H  0.00447686  0.88370856  0.78499923     0.13700
C701        C  0.00342658  0.84675192  0.16439696    -0.01800
C702        C  0.99948095  0.79871083  0.15090750    -0.09800
C703        C  0.00019254  0.76253473  0.18486910    -0.18600
C704        C  0.00477880  0.77300072  0.23410817     0.03800
C705        C  0.00873483  0.82177768  0.24802212     0.17900
C706        C  0.00784737  0.85816632  0.21321093    -0.20100
C707        C  0.01366837  0.83374095  0.29648868    -0.21300
C708        C  0.01448473  0.79817529  0.33145230    -0.19900
C709        C  0.01003952  0.74984427  0.31879853     0.19300
C710        C  0.00530085  0.73666150  0.26988079     0.01500
C711        C  0.00082463  0.68755838  0.25877143    -0.14600
C712        C  0.00032112  0.65307903  0.29456622    -0.12300
C713        C  0.00426419  0.66590150  0.34285820     0.01000
C714        C  0.00966444  0.71450690  0.35473195    -0.24500
H715        H  0.99585249  0.78864317  0.11362521     0.09000
H716        H  0.99713529  0.72674957  0.17103036     0.12600
H717        H  0.01095467  0.89526129  0.22417208     0.11300
H718        H  0.01684573  0.87082248  0.30742934     0.12500
H719        H  0.01821436  0.80855983  0.36866187     0.11500
H720        H  0.99718688  0.67426483  0.22280367     0.08600
H721        H  0.99627415  0.61598741  0.28407732     0.11900
H722        H  0.01316577  0.72497593  0.39194875     0.13700
C723        C  0.99917114  0.16587924  0.15509945    -0.01800
C724        C  0.01136083  0.21280897  0.14239923    -0.09800
C725        C  0.01102680  0.24940337  0.17635732    -0.18600
C726        C  0.99815170  0.24027949  0.22447426     0.03800
C727        C  0.98529191  0.19269292  0.23707764     0.17900
C728        C  0.98594960  0.15619443  0.20255550    -0.20100
C729        C  0.97208790  0.18167637  0.28413343    -0.21300
C730        C  0.97191377  0.21684891  0.31926200    -0.19900
C731        C  0.98478780  0.26391713  0.30814412     0.19300
C732        C  0.99779668  0.27648486  0.26055237     0.01500
C733        C  0.01000964  0.32470412  0.25126585    -0.14600
C734        C  0.00963450  0.35877069  0.28771958    -0.12300
C735        C  0.99736878  0.34606093  0.33464544     0.01000
C736        C  0.98482292  0.29851324  0.34451630    -0.24500
H737        H  0.02181999  0.22131392  0.10603313     0.09000
H738        H  0.02124587  0.28434110  0.16373870     0.12600
H739        H  0.97594186  0.12011406  0.21272286     0.11300
H740        H  0.96208819  0.14550785  0.29391603     0.12500
H741        H  0.96178168  0.20711775  0.35544274     0.11500
H742        H  0.02011336  0.33734871  0.21627964     0.08600
H743        H  0.01955751  0.39522721  0.27907869     0.11900
H744        H  0.97481829  0.28830818  0.38062152     0.13700
loop_ 
_geom_bond_atom_site_label_1 
_geom_bond_atom_site_label_2 
_geom_bond_distance 
_geom_bond_site_symmetry_2 
_ccdc_geom_bond_type 
O1           C12   1.291       .  A
O1          Eu37   2.457       .  S
O2           C13   1.293       .  A
O2          Eu36   2.468   1_545  S
O3           C14   1.292       .  A
O3           Eu9   2.459   1_455  S
O4           C15   1.289   1_556  A
O4           Eu9   2.444       .  S
O5           C15   1.293       .  A
O5          Eu39   2.460   1_545  S
O6           C14   1.291       .  A
O6          Eu38   2.458       .  S
O7           C13   1.290       .  A
O7           Eu9   2.450       .  S
O8           C12   1.291       .  A
O8           Eu9   2.452   1_454  S
Eu9          O19   2.351   1_556  S
Eu9          O11   2.345   1_656  S
Eu9          O10   2.353       .  S
Eu9          O17   2.349   1_655  S
O10         Eu39   2.350   1_546  S
O10         Eu36   2.347   1_545  S
O11         Eu37   2.350       .  S
O11         Eu38   2.355   1_554  S
C12         C723   1.480   1_455  S
C13         C669   1.480       .  S
C14         C547   1.483       .  S
C15         C515   1.482       .  S
H16          O17   0.965       .  S
O17         Eu38   2.354       .  S
O17         Eu36   2.360   1_445  S
H18          O19   0.964       .  S
O19         Eu37   2.343   1_655  S
O19         Eu39   2.350   1_545  S
O20          C43   1.293       .  A
O20         Eu36   2.465       .  S
O21          C44   1.288       .  A
O21         Eu37   2.438   1_565  S
O22          C45   1.293       .  A
O22         Eu38   2.461       .  S
O23          C46   1.290       .  A
O23         Eu39   2.445   1_556  S
O24          C47   1.290   1_565  A
O24         Eu39   2.445       .  S
O25          C48   1.291       .  A
O25         Eu38   2.456   1_554  S
O26          C49   1.291   1_554  A
O26         Eu40   2.456       .  S
O27          C50   1.291       .  A
O27         Eu40   2.452   1_655  S
O28          C49   1.292       .  A
O28         Eu38   2.458   1_565  S
O29          C50   1.293       .  A
O29         Eu39   2.467       .  S
O30          C45   1.290   1_565  A
O30         Eu36   2.445   1_455  S
O31          C48   1.293       .  A
O31         Eu37   2.460       .  S
O32          C47   1.294       .  A
O32         Eu37   2.476   1_655  S
O33          C46   1.294       .  A
O33         Eu36   2.469       .  S
O34          C43   1.289   1_455  A
O34         Eu40   2.444   1_556  S
O35          C44   1.291       .  A
O35         Eu40   2.451       .  S
Eu36         O54   2.347       .  S
Eu36         O42   2.356   1_655  S
Eu37         O41   2.352   1_445  S
Eu37         O52   2.362   1_545  S
Eu38         O52   2.355   1_546  S
Eu38         O42   2.349   1_545  S
Eu39         O41   2.347       .  S
Eu39         O54   2.345   1_554  S
Eu40         O41   2.346   1_455  S
Eu40         O52   2.347       .  S
Eu40         O54   2.351   1_454  S
Eu40         O42   2.351   1_554  S
C43         C691   1.482       .  S
C44         C701   1.477       .  S
C45         C591   1.480       .  S
C46         C569   1.485       .  S
C47         C647   1.488   1_545  S
C48         C613   1.485       .  S
C49         C537   1.485       .  S
C50         C481   1.487       .  S
H51          O52   0.964       .  S
H53          O54   0.965       .  S
O55          C66   1.291       .  A
O55         Eu91   2.451       .  S
O56          C67   1.291       .  A
O56         Eu90   2.454       .  S
O57          C68   1.292       .  A
O57         Eu63   2.465   1_455  S
O58          C69   1.290       .  A
O58         Eu63   2.452       .  S
O59          C69   1.293       .  A
O59         Eu93   2.462       .  S
O60          C68   1.292       .  A
O60         Eu92   2.457       .  S
O61          C67   1.292       .  A
O61         Eu63   2.464       .  S
O62          C66   1.290       .  A
O62         Eu63   2.448       .  S
Eu63         O73   2.358       .  S
Eu63         O65   2.351   1_655  S
Eu63         O64   2.350       .  S
Eu63         O71   2.352   1_655  S
O64         Eu93   2.351       .  S
O64         Eu90   2.350       .  S
O65         Eu91   2.348   1_455  S
O65         Eu92   2.345       .  S
C66         C735   1.478       .  S
C67         C657   1.480       .  S
C68         C349   1.489       .  S
C69         C305   1.485       .  S
H70          O71   0.966       .  S
O71         Eu92   2.357       .  S
O71         Eu90   2.355   1_455  S
H72          O73   0.966       .  S
O73         Eu91   2.351       .  S
O73         Eu93   2.345       .  S
O74          C97   1.290       .  A
O74         Eu90   2.451   1_455  S
O75          C98   1.292       .  A
O75         Eu91   2.456   1_455  S
O76          C99   1.291       .  A
O76         Eu92   2.456       .  S
O77         C100   1.290       .  A
O77         Eu93   2.447       .  S
O78         C101   1.292       .  A
O78         Eu93   2.460       .  S
O79         C102   1.293       .  A
O79         Eu92   2.467       .  S
O80         C103   1.293       .  A
O80         Eu94   2.465   1_455  S
O81         C104   1.291       .  A
O81         Eu94   2.455       .  S
O82         C103   1.292       .  A
O82         Eu92   2.459       .  S
O83         C104   1.291       .  A
O83         Eu93   2.451       .  S
O84          C99   1.292       .  A
O84         Eu90   2.464   1_455  S
O85         C102   1.292       .  A
O85         Eu91   2.457   1_455  S
O86         C101   1.292       .  A
O86         Eu91   2.458       .  S
O87         C100   1.291       .  A
O87         Eu90   2.456       .  S
O88          C97   1.292       .  A
O88         Eu94   2.456   1_455  S
O89          C98   1.291       .  A
O89         Eu94   2.456   1_455  S
Eu90        O108   2.352       .  S
Eu90         O96   2.349   1_655  S
Eu91         O95   2.349       .  S
Eu91        O106   2.347   1_655  S
Eu92        O106   2.349       .  S
Eu92         O96   2.350       .  S
Eu93         O95   2.354       .  S
Eu93        O108   2.358       .  S
Eu94         O95   2.358       .  S
Eu94        O106   2.351   1_655  S
Eu94        O108   2.354       .  S
Eu94         O96   2.348   1_655  S
C97         C679   1.484       .  S
C98         C713   1.482       .  S
C99         C437   1.481       .  S
C100        C459   1.480       .  S
C101        C393   1.486       .  S
C102        C415   1.489       .  S
C103        C371   1.485       .  S
C104        C327   1.481       .  S
H105        O106   0.966       .  S
H107        O108   0.966       .  S
O109        C120   1.295       .  A
O109       Eu145   2.478       .  S
O110        C121   1.290       .  A
O110       Eu144   2.446   1_545  S
O111        C122   1.295       .  A
O111       Eu117   2.478   1_565  S
O112        C123   1.293       .  A
O112       Eu117   2.464       .  S
O113        C123   1.292       .  A
O113       Eu147   2.457       .  S
O114        C122   1.290       .  A
O114       Eu146   2.443       .  S
O115        C121   1.292       .  A
O115       Eu117   2.461       .  S
O116        C120   1.289       .  A
O116       Eu117   2.438       .  S
Eu117       O127   2.359       .  S
Eu117       O119   2.350   1_545  S
Eu117       O118   2.349       .  S
Eu117       O125   2.350   1_545  S
O118       Eu147   2.354       .  S
O118       Eu144   2.345   1_545  S
O119       Eu145   2.351   1_565  S
O119       Eu146   2.349       .  S
C120        C635   1.487       .  S
C121        C625   1.484       .  S
C122        C239   1.486       .  S
C123        C217   1.486       .  S
H124        O125   0.966       .  S
O125       Eu146   2.353       .  S
O125       Eu144   2.353       .  S
H126        O127   0.966       .  S
O127       Eu145   2.349       .  S
O127       Eu147   2.353       .  S
O128        C151   1.289       .  A
O128       Eu144   2.446       .  S
O129        C152   1.293       .  A
O129       Eu145   2.464       .  S
O130        C153   1.292       .  A
O130       Eu146   2.462       .  S
O131        C154   1.293       .  A
O131       Eu147   2.461       .  S
O132        C155   1.293       .  A
O132       Eu147   2.465       .  S
O133        C156   1.292       .  A
O133       Eu146   2.458       .  S
O134        C157   1.289       .  A
O134       Eu148   2.445       .  S
O135        C158   1.287       .  A
O135       Eu148   2.438   1_545  S
O136        C157   1.291       .  A
O136       Eu146   2.451       .  S
O137        C158   1.294       .  A
O137       Eu147   2.472       .  S
O138        C153   1.292       .  A
O138       Eu144   2.461       .  S
O139        C156   1.290       .  A
O139       Eu145   2.443   1_565  S
O140        C155   1.290       .  A
O140       Eu145   2.449       .  S
O141        C154   1.293       .  A
O141       Eu144   2.464   1_545  S
O142        C151   1.290       .  A
O142       Eu148   2.450       .  S
O143        C152   1.290   1_565  A
O143       Eu148   2.451       .  S
Eu144       O162   2.356   1_565  S
Eu144       O150   2.351       .  S
Eu145       O149   2.353       .  S
Eu145       O160   2.354   1_545  S
Eu146       O160   2.346       .  S
Eu146       O150   2.348       .  S
Eu147       O149   2.346       .  S
Eu147       O162   2.353       .  S
Eu148       O149   2.355   1_565  S
Eu148       O160   2.348       .  S
Eu148       O162   2.349   1_565  S
Eu148       O150   2.347       .  S
C151        C603   1.479       .  S
C152        C581   1.484   1_545  S
C153        C383   1.483       .  S
C154        C361   1.489       .  S
C155        C317   1.484       .  S
C156        C339   1.480       .  S
C157        C261   1.477       .  S
C158        C283   1.471       .  S
H159        O160   0.965       .  S
H161        O162   0.966       .  S
O163        C174   1.291       .  A
O163       Eu199   2.455       .  S
O164        C175   1.291       .  A
O164       Eu198   2.449       .  S
O165        C176   1.290       .  A
O165       Eu171   2.446   1_554  S
O166        C177   1.292       .  A
O166       Eu171   2.462       .  S
O167        C177   1.292       .  A
O167       Eu201   2.461       .  S
O168        C176   1.294       .  A
O168       Eu200   2.472       .  S
O169        C175   1.292       .  A
O169       Eu171   2.457       .  S
O170        C174   1.293   1_556  A
O170       Eu171   2.462       .  S
Eu171       O181   2.345       .  S
Eu171       O173   2.353   1_556  S
Eu171       O172   2.345       .  S
Eu171       O179   2.356   1_556  S
O172       Eu201   2.351       .  S
O172       Eu198   2.361       .  S
O173       Eu199   2.351       .  S
O173       Eu200   2.342       .  S
C174        C559   1.483       .  S
C175        C525   1.481       .  S
C176        C427   1.486       .  S
C177        C449   1.482       .  S
H178        O179   0.964       .  S
O179       Eu200   2.350       .  S
O179       Eu198   2.354   1_554  S
H180        O181   0.964       .  S
O181       Eu199   2.358   1_556  S
O181       Eu201   2.342       .  S
O182        C205   1.293       .  A
O182       Eu198   2.466       .  S
O183        C206   1.295       .  A
O183       Eu199   2.475       .  S
O184        C207   1.290       .  A
O184       Eu200   2.442       .  S
O185        C208   1.292       .  A
O185       Eu201   2.454       .  S
O186        C209   1.292       .  A
O186       Eu201   2.462       .  S
O187        C210   1.291       .  A
O187       Eu200   2.452       .  S
O188        C211   1.289       .  A
O188       Eu202   2.439   1_554  S
O189        C212   1.291       .  A
O189       Eu202   2.455       .  S
O190        C211   1.292       .  A
O190       Eu200   2.461       .  S
O191        C212   1.290       .  A
O191       Eu201   2.446       .  S
O192        C207   1.294       .  A
O192       Eu198   2.477   1_554  S
O193        C210   1.291       .  A
O193       Eu199   2.458       .  S
O194        C209   1.289       .  A
O194       Eu199   2.446   1_556  S
O195        C208   1.290       .  A
O195       Eu198   2.447       .  S
O196        C205   1.290       .  A
O196       Eu202   2.452       .  S
O197        C206   1.289       .  A
O197       Eu202   2.446   1_554  S
Eu198       O216   2.358       .  S
Eu198       O204   2.340   1_556  S
Eu199       O203   2.353   1_554  S
Eu199       O214   2.344       .  S
Eu200       O214   2.352       .  S
Eu200       O204   2.352       .  S
Eu201       O203   2.352       .  S
Eu201       O216   2.358       .  S
Eu202       O203   2.350       .  S
Eu202       O214   2.358   1_556  S
Eu202       O216   2.348       .  S
Eu202       O204   2.348   1_556  S
C205        C493   1.487       .  S
C206        C503   1.487       .  S
C207        C251   1.486       .  S
C208        C273   1.475       .  S
C209        C295   1.468       .  S
C210        C229   1.484       .  S
C211        C405   1.481       .  S
C212        C471   1.481       .  S
H213        O214   0.963       .  S
H215        O216   0.964       .  S
C217        C218   1.403       .  A
C217        C222   1.403       .  A
C218        C219   1.396       .  A
C218        H231   1.083       .  S
C219        C220   1.414       .  A
C219        H232   1.077       .  S
C220        C226   1.430       .  A
C220        C221   1.422       .  A
C221        C223   1.400       .  A
C221        C222   1.405       .  A
C222        H233   1.084       .  S
C223        C224   1.390       .  A
C223        H234   1.084       .  S
C224        C225   1.399       .  A
C224        H235   1.084       .  S
C225        C226   1.422       .  A
C225        C230   1.405       .  A
C226        C227   1.414       .  A
C227        C228   1.395       .  A
C227        H236   1.077       .  S
C228        C229   1.402       .  A
C228        H237   1.083       .  S
C229        C230   1.403       .  A
C230        H238   1.084       .  S
C239        C240   1.403       .  A
C239        C244   1.404       .  A
C240        C241   1.394       .  A
C240        H253   1.083       .  S
C241        C242   1.413       .  A
C241        H254   1.077       .  S
C242        C248   1.431       .  A
C242        C243   1.423       .  A
C243        C245   1.400       .  A
C243        C244   1.409       .  A
C244        H255   1.084       .  S
C245        C246   1.392       .  A
C245        H256   1.084       .  S
C246        C247   1.400       .  A
C246        H257   1.084       .  S
C247        C248   1.422       .  A
C247        C252   1.409       .  A
C248        C249   1.414       .  A
C249        C250   1.394       .  A
C249        H258   1.077       .  S
C250        C251   1.403       .  A
C250        H259   1.083       .  S
C251        C252   1.403       .  A
C252        H260   1.084       .  S
C261        C262   1.400       .  A
C261        C266   1.403       .  A
C262        C263   1.390       .  A
C262        H275   1.083       .  S
C263        C264   1.413       .  A
C263        H276   1.076       .  S
C264        C270   1.425       .  A
C264        C265   1.422       .  A
C265        C267   1.400       .  A
C265        C266   1.404       .  A
C266        H277   1.084       .  S
C267        C268   1.390       .  A
C267        H278   1.084       .  S
C268        C269   1.400       .  A
C268        H279   1.084       .  S
C269        C270   1.421       .  A
C269        C274   1.402       .  A
C270        C271   1.414       .  A
C271        C272   1.391       .  A
C271        H280   1.076       .  S
C272        C273   1.399       .  A
C272        H281   1.083       .  S
C273        C274   1.403       .  A
C274        H282   1.085       .  S
C283        C284   1.400       .  A
C283        C288   1.396       .  A
C284        C285   1.397       .  A
C284        H297   1.084       .  S
C285        C286   1.416       .  A
C285        H298   1.077       .  S
C286        C292   1.430       .  A
C286        C287   1.424       .  A
C287        C289   1.398       .  A
C287        C288   1.402       .  A
C288        H299   1.085       .  S
C289        C290   1.387       .  A
C289        H300   1.084       .  S
C290        C291   1.398       .  A
C290        H301   1.084       .  S
C291        C292   1.424       .  A
C291        C296   1.402       .  A
C292        C293   1.416       .  A
C293        C294   1.397       .  A
C293        H302   1.077       .  S
C294        C295   1.399       .  A
C294        H303   1.084       .  S
C295        C296   1.396       .  A
C296        H304   1.085       .  S
C305        C306   1.401       .  A
C305        C310   1.406       .  A
C306        C307   1.393       .  A
C306        H319   1.083       .  S
C307        C308   1.413       .  A
C307        H320   1.077       .  S
C308        C314   1.428       .  A
C308        C309   1.421       .  A
C309        C311   1.401       .  A
C309        C310   1.406       .  A
C310        H321   1.084       .  S
C311        C312   1.392       .  A
C311        H322   1.084       .  S
C312        C313   1.401       .  A
C312        H323   1.084       .  S
C313        C314   1.421       .  A
C313        C318   1.407       .  A
C314        C315   1.413       .  A
C315        C316   1.393       .  A
C315        H324   1.077       .  S
C316        C317   1.401       .  A
C316        H325   1.083       .  S
C317        C318   1.406       .  A
C318        H326   1.084       .  S
C327        C328   1.401       .  A
C327        C332   1.403       .  A
C328        C329   1.392       .  A
C328        H341   1.083       .  S
C329        C330   1.413       .  A
C329        H342   1.077       .  S
C330        C336   1.427       .  A
C330        C331   1.422       .  A
C331        C333   1.399       .  A
C331        C332   1.403       .  A
C332        H343   1.084       .  S
C333        C334   1.389       .  A
C333        H344   1.084       .  S
C334        C335   1.399       .  A
C334        H345   1.084       .  S
C335        C336   1.421       .  A
C335        C340   1.402       .  A
C336        C337   1.414       .  A
C337        C338   1.393       .  A
C337        H346   1.077       .  S
C338        C339   1.402       .  A
C338        H347   1.083       .  S
C339        C340   1.402       .  A
C340        H348   1.084       .  S
C349        C350   1.403       .  A
C349        C354   1.406       .  A
C350        C351   1.394       .  A
C350        H363   1.083       .  S
C351        C352   1.413       .  A
C351        H364   1.077       .  S
C352        C358   1.431       .  A
C352        C353   1.422       .  A
C353        C355   1.401       .  A
C353        C354   1.410       .  A
C354        H365   1.084       .  S
C355        C356   1.393       .  A
C355        H366   1.084       .  S
C356        C357   1.401       .  A
C356        H367   1.084       .  S
C357        C358   1.422       .  A
C357        C362   1.409       .  A
C358        C359   1.414       .  A
C359        C360   1.395       .  A
C359        H368   1.077       .  S
C360        C361   1.403       .  A
C360        H369   1.083       .  S
C361        C362   1.406       .  A
C362        H370   1.084       .  S
C371        C372   1.402       .  A
C371        C376   1.404       .  A
C372        C373   1.395       .  A
C372        H385   1.083       .  S
C373        C374   1.413       .  A
C373        H386   1.077       .  S
C374        C380   1.431       .  A
C374        C375   1.423       .  A
C375        C377   1.400       .  A
C375        C376   1.409       .  A
C376        H387   1.084       .  S
C377        C378   1.391       .  A
C377        H388   1.084       .  S
C378        C379   1.400       .  A
C378        H389   1.084       .  S
C379        C380   1.422       .  A
C379        C384   1.406       .  A
C380        C381   1.416       .  A
C381        C382   1.397       .  A
C381        H390   1.077       .  S
C382        C383   1.401       .  A
C382        H391   1.083       .  S
C383        C384   1.403       .  A
C384        H392   1.085       .  S
C393        C394   1.402       .  A
C393        C398   1.405       .  A
C394        C395   1.395       .  A
C394        H407   1.083       .  S
C395        C396   1.414       .  A
C395        H408   1.077       .  S
C396        C402   1.429       .  A
C396        C397   1.422       .  A
C397        C399   1.400       .  A
C397        C398   1.406       .  A
C398        H409   1.084       .  S
C399        C400   1.390       .  A
C399        H410   1.084       .  S
C400        C401   1.399       .  A
C400        H411   1.084       .  S
C401        C402   1.422       .  A
C401        C406   1.404       .  A
C402        C403   1.414       .  A
C403        C404   1.394       .  A
C403        H412   1.077       .  S
C404        C405   1.403       .  A
C404        H413   1.083       .  S
C405        C406   1.402       .  A
C406        H414   1.084       .  S
C415        C416   1.403       .  A
C415        C420   1.405       .  A
C416        C417   1.395       .  A
C416        H429   1.083       .  S
C417        C418   1.413       .  A
C417        H430   1.077       .  S
C418        C424   1.431       .  A
C418        C419   1.423       .  A
C419        C421   1.400       .  A
C419        C420   1.409       .  A
C420        H431   1.084       .  S
C421        C422   1.391       .  A
C421        H432   1.084       .  S
C422        C423   1.400       .  A
C422        H433   1.084       .  S
C423        C424   1.421       .  A
C423        C428   1.406       .  A
C424        C425   1.415       .  A
C425        C426   1.396       .  A
C425        H434   1.077       .  S
C426        C427   1.403       .  A
C426        H435   1.083       .  S
C427        C428   1.403       .  A
C428        H436   1.084       .  S
C437        C438   1.401       .  A
C437        C442   1.402       .  A
C438        C439   1.395       .  A
C438        H451   1.084       .  S
C439        C440   1.414       .  A
C439        H452   1.077       .  S
C440        C446   1.431       .  A
C440        C441   1.423       .  A
C441        C443   1.400       .  A
C441        C442   1.407       .  A
C442        H453   1.085       .  S
C443        C444   1.391       .  A
C443        H454   1.084       .  S
C444        C445   1.400       .  A
C444        H455   1.084       .  S
C445        C446   1.422       .  A
C445        C450   1.406       .  A
C446        C447   1.416       .  A
C447        C448   1.397       .  A
C447        H456   1.077       .  S
C448        C449   1.401       .  A
C448        H457   1.083       .  S
C449        C450   1.402       .  A
C450        H458   1.084       .  S
C459        C460   1.401       .  A
C459        C464   1.403       .  A
C460        C461   1.392       .  A
C460        H473   1.083       .  S
C461        C462   1.414       .  A
C461        H474   1.077       .  S
C462        C468   1.427       .  A
C462        C463   1.421       .  A
C463        C465   1.399       .  A
C463        C464   1.403       .  A
C464        H475   1.084       .  S
C465        C466   1.390       .  A
C465        H476   1.084       .  S
C466        C467   1.400       .  A
C466        H477   1.084       .  S
C467        C468   1.422       .  A
C467        C472   1.404       .  A
C468        C469   1.413       .  A
C469        C470   1.392       .  A
C469        H478   1.076       .  S
C470        C471   1.401       .  A
C470        H479   1.083       .  S
C471        C472   1.403       .  A
C472        H480   1.084       .  S
C481        C482   1.404       .  A
C481        C486   1.403   1_554  A
C482        C483   1.398       .  A
C482        H495   1.083       .  S
C483        C484   1.415   1_554  A
C483        H496   1.077   1_554  S
C484        C490   1.432       .  A
C484        C485   1.422       .  A
C485        C487   1.399       .  A
C485        C486   1.405       .  A
C486        H497   1.084       .  S
C487        C488   1.389       .  A
C487        H498   1.084       .  S
C488        C489   1.399       .  A
C488        H499   1.084       .  S
C489        C490   1.422       .  A
C489        C494   1.405       .  A
C490        C491   1.414       .  A
C491        C492   1.398       .  A
C491        H500   1.077   1_556  S
C492        C493   1.404       .  A
C492        H501   1.083   1_556  S
C493        C494   1.403       .  A
C494        H502   1.084       .  S
C503        C504   1.400       .  A
C503        C508   1.407       .  A
C504        C505   1.393       .  A
C504        H517   1.083   1_554  S
C505        C506   1.413       .  A
C505        H518   1.076   1_554  S
C506        C512   1.429       .  A
C506        C507   1.422       .  A
C507        C509   1.401       .  A
C507        C508   1.408       .  A
C508        H519   1.084       .  S
C509        C510   1.392       .  A
C509        H520   1.084       .  S
C510        C511   1.401       .  A
C510        H521   1.084       .  S
C511        C512   1.421       .  A
C511        C516   1.406       .  A
C512        C513   1.414       .  A
C513        C514   1.393   1_554  A
C513        H522   1.076   1_554  S
C514        C515   1.400   1_556  A
C514        H523   1.083       .  S
C515        C516   1.405       .  A
C516        H524   1.084       .  S
C525        C526   1.401       .  A
C525        C530   1.403       .  A
C526        C527   1.394       .  A
C526        H539   1.083       .  S
C527        C528   1.415       .  A
C527        H540   1.077       .  S
C528        C534   1.428       .  A
C528        C529   1.421       .  A
C529        C531   1.399       .  A
C529        C530   1.403       .  A
C530        H541   1.084       .  S
C531        C532   1.390   1_556  A
C531        H542   1.084   1_556  S
C532        C533   1.400   1_554  A
C532        H543   1.084       .  S
C533        C534   1.422       .  A
C533        C538   1.406       .  A
C534        C535   1.413       .  A
C535        C536   1.393       .  A
C535        H544   1.077       .  S
C536        C537   1.402       .  A
C536        H545   1.083       .  S
C537        C538   1.404       .  A
C538        H546   1.084       .  S
C547        C548   1.401       .  A
C547        C552   1.404   1_556  A
C548        C549   1.395       .  A
C548        H561   1.083       .  S
C549        C550   1.415   1_556  A
C549        H562   1.077       .  S
C550        C556   1.430       .  A
C550        C551   1.422       .  A
C551        C553   1.400       .  A
C551        C552   1.407       .  A
C552        H563   1.084       .  S
C553        C554   1.391       .  A
C553        H564   1.084       .  S
C554        C555   1.400       .  A
C554        H565   1.084       .  S
C555        C556   1.423       .  A
C555        C560   1.407       .  A
C556        C557   1.414   1_554  A
C557        C558   1.394       .  A
C557        H566   1.077       .  S
C558        C559   1.401   1_556  A
C558        H567   1.083       .  S
C559        C560   1.404       .  A
C560        H568   1.085       .  S
C569        C570   1.404   1_565  A
C569        C574   1.401       .  A
C570        C571   1.397       .  A
C570        H583   1.083       .  S
C571        C572   1.414   1_545  A
C571        H584   1.077       .  S
C572        C578   1.431       .  A
C572        C573   1.423       .  A
C573        C575   1.398       .  A
C573        C574   1.404       .  A
C574        H585   1.084       .  S
C575        C576   1.387       .  A
C575        H586   1.084       .  S
C576        C577   1.398       .  A
C576        H587   1.084       .  S
C577        C578   1.421       .  A
C577        C582   1.401       .  A
C578        C579   1.416   1_565  A
C579        C580   1.399       .  A
C579        H588   1.077       .  S
C580        C581   1.403   1_545  A
C580        H589   1.083       .  S
C581        C582   1.402       .  A
C582        H590   1.084       .  S
C591        C592   1.403   1_545  A
C591        C596   1.401       .  A
C592        C593   1.395       .  A
C592        H605   1.083       .  S
C593        C594   1.414       .  A
C593        H606   1.077       .  S
C594        C600   1.427       .  A
C594        C595   1.422   1_565  A
C595        C597   1.398       .  A
C595        C596   1.401       .  A
C596        H607   1.084       .  S
C597        C598   1.387       .  A
C597        H608   1.084       .  S
C598        C599   1.398       .  A
C598        H609   1.084       .  S
C599        C600   1.421   1_545  A
C599        C604   1.400       .  A
C600        C601   1.415       .  A
C601        C602   1.396       .  A
C601        H610   1.077       .  S
C602        C603   1.402       .  A
C602        H611   1.083       .  S
C603        C604   1.401   1_565  A
C604        H612   1.084       .  S
C613        C614   1.401       .  A
C613        C618   1.406       .  A
C614        C615   1.390       .  A
C614        H627   1.083       .  S
C615        C616   1.413       .  A
C615        H628   1.076       .  S
C616        C622   1.427       .  A
C616        C617   1.422       .  A
C617        C619   1.401       .  A
C617        C618   1.409       .  A
C618        H629   1.084       .  S
C619        C620   1.393       .  A
C619        H630   1.084       .  S
C620        C621   1.401       .  A
C620        H631   1.084       .  S
C621        C622   1.422       .  A
C621        C626   1.409       .  A
C622        C623   1.412       .  A
C623        C624   1.390       .  A
C623        H632   1.076       .  S
C624        C625   1.402       .  A
C624        H633   1.083   1_545  S
C625        C626   1.405       .  A
C626        H634   1.084       .  S
C635        C636   1.404       .  A
C635        C640   1.404   1_545  A
C636        C637   1.393       .  A
C636        H649   1.083       .  S
C637        C638   1.412       .  A
C637        H650   1.077       .  S
C638        C644   1.431       .  A
C638        C639   1.423   1_545  A
C639        C641   1.400       .  A
C639        C640   1.409       .  A
C640        H651   1.084       .  S
C641        C642   1.392       .  A
C641        H652   1.084       .  S
C642        C643   1.400       .  A
C642        H653   1.084       .  S
C643        C644   1.422   1_565  A
C643        C648   1.409       .  A
C644        C645   1.414       .  A
C645        C646   1.394       .  A
C645        H654   1.077       .  S
C646        C647   1.404   1_545  A
C646        H655   1.083       .  S
C647        C648   1.404       .  A
C648        H656   1.084       .  S
C657        C658   1.401       .  A
C657        C662   1.401   1_655  A
C658        C659   1.396       .  A
C658        H671   1.084       .  S
C659        C660   1.415       .  A
C659        H672   1.077       .  S
C660        C666   1.431       .  A
C660        C661   1.423   1_655  A
C661        C663   1.400       .  A
C661        C662   1.407       .  A
C662        H673   1.085       .  S
C663        C664   1.391       .  A
C663        H674   1.084       .  S
C664        C665   1.399       .  A
C664        H675   1.084       .  S
C665        C666   1.423   1_455  A
C665        C670   1.407       .  A
C666        C667   1.415       .  A
C667        C668   1.396       .  A
C667        H676   1.077       .  S
C668        C669   1.401       .  A
C668        H677   1.084       .  S
C669        C670   1.401   1_655  A
C670        H678   1.085       .  S
C679        C680   1.403       .  A
C679        C684   1.402       .  A
C680        C681   1.396       .  A
C680        H693   1.083       .  S
C681        C682   1.414       .  A
C681        H694   1.077       .  S
C682        C688   1.429       .  A
C682        C683   1.422       .  A
C683        C685   1.398       .  A
C683        C684   1.403       .  A
C684        H695   1.084       .  S
C685        C686   1.387       .  A
C685        H696   1.084       .  S
C686        C687   1.398       .  A
C686        H697   1.084       .  S
C687        C688   1.422       .  A
C687        C692   1.401       .  A
C688        C689   1.415   1_455  A
C689        C690   1.397       .  A
C689        H698   1.077       .  S
C690        C691   1.404       .  A
C690        H699   1.083       .  S
C691        C692   1.401   1_655  A
C692        H700   1.084       .  S
C701        C702   1.399   1_455  A
C701        C706   1.405       .  A
C702        C703   1.386   1_655  A
C702        H715   1.083       .  S
C703        C704   1.412       .  A
C703        H716   1.076   1_455  S
C704        C710   1.424       .  A
C704        C705   1.422       .  A
C705        C707   1.401       .  A
C705        C706   1.407       .  A
C706        H717   1.084       .  S
C707        C708   1.393       .  A
C707        H718   1.084       .  S
C708        C709   1.402       .  A
C708        H719   1.084       .  S
C709        C710   1.421       .  A
C709        C714   1.408       .  A
C710        C711   1.412       .  A
C711        C712   1.388       .  A
C711        H720   1.076   1_455  S
C712        C713   1.400       .  A
C712        H721   1.083   1_455  S
C713        C714   1.406       .  A
C714        H722   1.084       .  S
C723        C724   1.401   1_655  A
C723        C728   1.402       .  A
C724        C725   1.395       .  A
C724        H737   1.083       .  S
C725        C726   1.414   1_455  A
C725        H738   1.077       .  S
C726        C732   1.428       .  A
C726        C727   1.422       .  A
C727        C729   1.399       .  A
C727        C728   1.404       .  A
C728        H739   1.084       .  S
C729        C730   1.389       .  A
C729        H740   1.084       .  S
C730        C731   1.399       .  A
C730        H741   1.084       .  S
C731        C732   1.422       .  A
C731        C736   1.402       .  A
C732        C733   1.414   1_655  A
C733        C734   1.394       .  A
C733        H742   1.077       .  S
C734        C735   1.400   1_455  A
C734        H743   1.083       .  S
C735        C736   1.402       .  A
C736        H744   1.085       .  S
