geometry optimzed in LAMMPS
_audit_creation_date              2020-11-30 
_audit_creation_method            'lammps2cif' 
_symmetry_space_group_name_H-M    'P1' 
_symmetry_Int_Tables_number       1 
_symmetry_cell_setting            triclinic 
loop_ 
_symmetry_equiv_pos_as_xyz 
  x,y,z 
_cell_length_a                    43.13525357 
_cell_length_b                    28.17612412096001 
_cell_length_c                    24.8439250331095 
_cell_angle_alpha                 89.99483107518482 
_cell_angle_beta                  90.40411981629735 
_cell_angle_gamma                 90.00864813516364 
loop_ 
_atom_site_label 
_atom_site_type_symbol 
_atom_site_fract_x 
_atom_site_fract_y 
_atom_site_fract_z 
_atom_site_charge 
C1          C  0.94811554  0.37578002  0.25076826     0.89000
C2          C  0.96996130  0.33247897  0.25368991    -0.51200
C3          C  0.99235738  0.33319111  0.21491433     0.12000
C4          C  0.99049899  0.37583174  0.17685782     0.22900
C5          C  0.96997229  0.41907435  0.25376303    -0.51900
C6          C  0.99236732  0.41841644  0.21498499     0.12100
C7          C  0.93507502  0.37582373  0.19337433    -0.51400
C8          C  0.95720452  0.37585175  0.15483322     0.12600
H9          H  0.96888531  0.30557910  0.28493415     0.17200
H10         H  0.00861504  0.37585422  0.14521608     0.02900
H11         H  0.96890079  0.44593252  0.28504790     0.17500
H12         H  0.91040875  0.37583492  0.18397404     0.17300
C13         C  0.58657254  0.12574669  0.74854813     0.89000
C14         C  0.56474613  0.16898671  0.75178702    -0.51200
C15         C  0.54185807  0.16828411  0.71337161     0.12000
C16         C  0.54325001  0.12568048  0.67523166     0.22900
C17         C  0.56477518  0.08246390  0.75183053    -0.51900
C18         C  0.54188743  0.08309697  0.71341282     0.12100
C19         C  0.59891506  0.12574097  0.69090878    -0.51400
C20         C  0.57626393  0.12570564  0.65260918     0.12600
H21         H  0.56613064  0.19575578  0.78316229     0.17200
H22         H  0.52469297  0.12565208  0.64391736     0.02900
H23         H  0.56617788  0.05571584  0.78323156     0.17500
H24         H  0.62345280  0.12576047  0.68121090     0.17300
Zn25       Zn  0.65868740  0.18230491  0.30989590     1.49700
Zn26       Zn  0.65712913  0.12568961  0.19854006     1.49400
Zn27       Zn  0.72007808  0.12572676  0.26887797     1.49100
Zn28       Zn  0.65870005  0.06907737  0.30990059     1.49500
O29         O  0.67418484  0.12570040  0.27207920    -1.81600
O30         O  0.62620146  0.21654350  0.26528642    -0.72200
O31         O  0.69039024  0.12573084  0.14235605    -0.72000
O32         O  0.73671159  0.18640743  0.30727134    -0.71500
O33         O  0.62859529  0.18063512  0.18570351    -0.72200
O34         O  0.69400223  0.22653374  0.32921647    -0.71800
O35         O  0.73477390  0.12574514  0.18875105    -0.72400
O36         O  0.69402590  0.02489339  0.32922970    -0.71800
O37         O  0.62863657  0.07068428  0.18568855    -0.72500
O38         O  0.73672695  0.06505557  0.30726560    -0.71900
O39         O  0.62623835  0.03478756  0.26528492    -0.72400
O40         O  0.63779505  0.08625185  0.37985210    -0.72300
O41         O  0.63779461  0.16509869  0.37985468    -0.72100
C42         C  0.61706855  0.21158225  0.21679899     0.79700
C43         C  0.71986018  0.12574674  0.14394950     0.80200
C44         C  0.72341943  0.22280238  0.32773348     0.79100
C45         C  0.72344189  0.02864874  0.32773576     0.79500
C46         C  0.61711796  0.03972209  0.21678706     0.80700
C47         C  0.63113885  0.12567135  0.40179763     0.79700
C48         C  0.74633453  0.12581289  0.98596324     0.89000
C49         C  0.76312783  0.08243886  0.96214896    -0.51200
C50         C  0.76414892  0.08249220  0.90702093     0.12000
C51         C  0.74830808  0.12586037  0.88089811     0.22900
C52         C  0.76314913  0.16919727  0.96219209    -0.51900
C53         C  0.76417052  0.16919389  0.90706420     0.12100
C54         C  0.71429350  0.12583552  0.95873064    -0.51400
C55         C  0.71527610  0.12585937  0.90395724     0.12600
H56         H  0.77309184  0.05424358  0.98655992     0.17200
H57         H  0.74903420  0.12588021  0.83618606     0.00900
H58         H  0.77312739  0.19736269  0.98663107     0.17500
H59         H  0.69266382  0.12582688  0.98089950     0.17300
Zn60       Zn  0.90170551  0.37594793  0.78622803     1.49700
Zn61       Zn  0.84534964  0.43373622  0.73276484     1.49400
Zn62       Zn  0.84539854  0.31798680  0.73282998     1.49100
Zn63       Zn  0.83662124  0.37588792  0.84416750     1.49500
O64         O  0.85682645  0.37588906  0.77347283    -1.81600
O65         O  0.92203617  0.43091261  0.75141261    -0.72200
O66         O  0.82148930  0.41542023  0.66408261    -0.72000
O67         O  0.88445676  0.28235365  0.70834234    -0.71500
O68         O  0.88437811  0.46944002  0.70822935    -0.72200
O69         O  0.92208697  0.32102046  0.75144893    -0.71800
O70         O  0.82152936  0.33619699  0.66412322    -0.72400
O71         O  0.81118229  0.31613184  0.85479096    -0.71800
O72         O  0.81945417  0.47831670  0.78060440    -0.72500
O73         O  0.81952232  0.27339237  0.78070499    -0.71900
O74         O  0.81116241  0.43561384  0.85474597    -0.72400
O75         O  0.86808517  0.37592468  0.90494602    -0.72300
O76         O  0.91373342  0.37597639  0.86421538    -0.72100
C77         C  0.91295346  0.46361923  0.72007793     0.79700
C78         C  0.81461857  0.37579175  0.64202999     0.80200
C79         C  0.91302925  0.28826177  0.72016352     0.79100
C80         C  0.80781491  0.27813763  0.82754843     0.79500
C81         C  0.80776682  0.47358416  0.82746664     0.80700
C82         C  0.89754214  0.37596001  0.90663259     0.79700
C83         C  0.78873717  0.37572508  0.48221763     0.89000
C84         C  0.77152637  0.33233529  0.45903429    -0.51200
C85         C  0.76951693  0.33215084  0.40397290     0.12000
C86         C  0.78484446  0.37572605  0.37724705     0.22900
C87         C  0.82023118  0.37572099  0.45412876    -0.51900
C88         C  0.81831901  0.37572163  0.39944109     0.12100
C89         C  0.77153998  0.41911835  0.45902623    -0.51400
C90         C  0.76953077  0.41930425  0.40396612     0.12600
H91         H  0.76215926  0.30408678  0.48384648     0.17200
H92         H  0.78335480  0.37572731  0.33257444     0.02900
H93         H  0.84224140  0.37571969  0.47571209     0.17500
H94         H  0.76218142  0.44736903  0.48383302     0.17300
C95         C  0.44461789  0.37566994  0.12725401     0.89000
C96         C  0.46632569  0.41895721  0.12378045    -0.51200
C97         C  0.48923223  0.41830927  0.16206877     0.12000
C98         C  0.48810638  0.37561888  0.20008209     0.22900
C99         C  0.46627754  0.33233571  0.12378131    -0.51900
C100        C  0.48918466  0.33293032  0.16207104     0.12100
C101        C  0.43242389  0.37567921  0.18494875    -0.51400
C102        C  0.45522322  0.37565207  0.22292615     0.12600
H103        H  0.46454266  0.44615859  0.09293486     0.17200
H104        H  0.50674924  0.37559745  0.23124525     0.02900
H105        H  0.46446595  0.30514428  0.09293375     0.17500
H106        H  0.40791311  0.37570409  0.19492402     0.17300
C107        C  0.08427356  0.12589615  0.62483930     0.89000
C108        C  0.06237440  0.08261626  0.62204138    -0.51200
C109        C  0.04006418  0.08331908  0.66098711     0.12000
C110        C  0.04204995  0.12591919  0.69905748     0.22900
C111        C  0.06242083  0.16922409  0.62206358    -0.51900
C112        C  0.04010998  0.16854544  0.66101112     0.12100
C113        C  0.09743541  0.12586722  0.68216049    -0.51400
C114        C  0.07538611  0.12587969  0.72084295     0.12600
H115        H  0.06335768  0.05573727  0.59077091     0.17200
H116        H  0.02401441  0.12592839  0.73083930     0.02900
H117        H  0.06343293  0.19611818  0.59080710     0.17500
H118        H  0.12211975  0.12584128  0.69140770     0.17300
Zn119      Zn  0.18685725  0.18366884  0.14297592     1.49700
Zn120      Zn  0.13041499  0.12583624  0.08989193     1.49400
Zn121      Zn  0.19532418  0.12586003  0.03167536     1.49100
Zn122      Zn  0.18685529  0.06797736  0.14292648     1.49500
O123        O  0.17529049  0.12583651  0.10242997    -1.81600
O124        O  0.14790528  0.21917255  0.16798971    -0.72200
O125        O  0.11822610  0.12583025  0.01194355    -0.72000
O126        O  0.22065773  0.18548085  0.02074735    -0.71500
O127        O  0.11016765  0.18075754  0.12486402    -0.72200
O128        O  0.21242348  0.22836131  0.09475930    -0.71800
O129        O  0.16384032  0.12586422  0.97112841    -0.72400
O130        O  0.21241414  0.02332084  0.09467748    -0.71800
O131        O  0.11015987  0.07092140  0.12489423    -0.72500
O132        O  0.22066736  0.06626324  0.02070796    -0.71900
O133        O  0.14790285  0.03246302  0.16794367    -0.72400
O134        O  0.21098738  0.08618338  0.21130755    -0.72300
O135        O  0.21098264  0.16541230  0.21135294    -0.72100
C136        C  0.11931460  0.21336762  0.15627168     0.79700
C137        C  0.13439484  0.12584749  0.96949742     0.80200
C138        C  0.22398394  0.22355267  0.04781498     0.79100
C139        C  0.22398500  0.02816954  0.04774462     0.79500
C140        C  0.11930920  0.03828985  0.15627233     0.80700
C141        C  0.21793416  0.12578850  0.23333323     0.79700
C142        C  0.24374205  0.12571015  0.39305828     0.89000
C143        C  0.26098155  0.16904895  0.41629265    -0.51200
C144        C  0.26302274  0.16905497  0.47134544     0.12000
C145        C  0.24756930  0.12567422  0.49801416     0.22900
C146        C  0.26096558  0.08234821  0.41626311    -0.51900
C147        C  0.26300847  0.08230478  0.47131632     0.12100
C148        C  0.21222280  0.12570838  0.42108421    -0.51400
C149        C  0.21408526  0.12569210  0.47577952     0.12600
H150        H  0.27058486  0.19714433  0.39153190     0.17200
H151        H  0.24908437  0.12566073  0.54268763     0.02900
H152        H  0.27056325  0.05427037  0.39148235     0.17500
H153        H  0.19023251  0.12573066  0.39944595     0.17300
Zn154      Zn  0.34660216  0.43350617  0.64366163     1.49700
Zn155      Zn  0.34657317  0.31790405  0.64372158     1.49400
Zn156      Zn  0.33801128  0.37568259  0.53196788     1.49100
Zn157      Zn  0.40302297  0.37566494  0.59205740     1.49500
O158        O  0.35811125  0.37568902  0.60325548    -1.81600
O159        O  0.32213785  0.41533252  0.71105646    -0.72200
O160        O  0.32065678  0.27340452  0.59549427    -0.72000
O161        O  0.31240709  0.43558439  0.52086639    -0.71500
O162        O  0.32211398  0.33613986  0.71110239    -0.72200
O163        O  0.32069310  0.47799132  0.59540995    -0.71800
O164        O  0.31241266  0.31576673  0.52089756    -0.72400
O165        O  0.41534717  0.37566387  0.51458546    -0.71800
O166        O  0.38550252  0.28213444  0.66950028    -0.72500
O167        O  0.36978176  0.37567924  0.47239401    -0.71900
O168        O  0.42321403  0.32071211  0.62740664    -0.72400
O169        O  0.42324761  0.43058982  0.62741452    -0.72300
O170        O  0.38554922  0.46925021  0.66941966    -0.72100
C171        C  0.31487713  0.37574834  0.73262735     0.79700
C172        C  0.30885662  0.27798521  0.54844209     0.80200
C173        C  0.30886967  0.47338283  0.54837899     0.79100
C174        C  0.39924987  0.37566944  0.47167633     0.79500
C175        C  0.41408365  0.28794300  0.65838212     0.80700
C176        C  0.41413063  0.46338952  0.65834846     0.79700
C177        C  0.28664428  0.37584163  0.89023204     0.89000
C178        C  0.26939178  0.33243042  0.91307440    -0.51200
C179        C  0.26737870  0.33253739  0.96812944     0.12000
C180        C  0.28272244  0.37587710  0.99504372     0.22900
C181        C  0.26940379  0.41927316  0.91302791    -0.51900
C182        C  0.26739000  0.41920286  0.96808430     0.12100
C183        C  0.31809878  0.37584738  0.91912998    -0.51400
C184        C  0.31607150  0.37586442  0.97368262     0.12600
H185        H  0.25998937  0.30412455  0.88816298     0.17200
H186        H  0.28126165  0.37589038  0.03969661     0.02900
H187        H  0.26000600  0.44756104  0.88808559     0.17500
H188        H  0.34015601  0.37582934  0.89821022     0.17300
C189        C  0.29963693  0.37577962  0.78456057    -0.10700
C190        C  0.29082804  0.37581309  0.83095166    -0.12300
C191        C  0.29171344  0.23891317  0.52458249    -0.10700
C192        C  0.27836098  0.20679903  0.50145725    -0.12300
C193        C  0.27835378  0.04455069  0.50140135    -0.10700
C194        C  0.29171706  0.01244015  0.52451235    -0.12300
C195        C  0.24001773  0.12573612  0.33357672    -0.10700
C196        C  0.23218785  0.12576319  0.28645832    -0.12300
C197        C  0.25278191  0.29464254  0.99858512    -0.10700
C198        C  0.24030766  0.26272051  0.02306909    -0.12300
C199        C  0.24031237  0.48902370  0.02297989    -0.10700
C200        C  0.25279067  0.45710861  0.99850432    -0.12300
C201        C  0.10947081  0.12587377  0.58501680    -0.15900
C202        C  0.13303140  0.12583280  0.55885000     0.08100
C203        C  0.16195438  0.12577387  0.53198090     0.10000
C204        C  0.18642297  0.12572759  0.50846770    -0.16800
C205        C  0.08344235  0.12586532  0.77715459    -0.15900
C206        C  0.09296204  0.12585708  0.82284171     0.08100
C207        C  0.10639461  0.12585119  0.87475168     0.10000
C208        C  0.11894887  0.12584856  0.91821770    -0.16800
C209        C  0.34339574  0.37583977  0.00729659    -0.15900
C210        C  0.36744254  0.37580154  0.03226011     0.08100
C211        C  0.39583338  0.37574759  0.06080427     0.10000
C212        C  0.41912928  0.37570494  0.08787686    -0.16800
C213        C  0.44837601  0.37565142  0.27947629    -0.15900
C214        C  0.43985398  0.37565264  0.32549888     0.08100
C215        C  0.42717194  0.37565722  0.37760638     0.10000
C216        C  0.41480768  0.37566311  0.42090703    -0.16800
C217        C  0.93648047  0.49320241  0.69682001    -0.15900
C218        C  0.95978336  0.01249129  0.68135584     0.08100
C219        C  0.98882302  0.03272199  0.66838986     0.10000
C220        C  0.01338128  0.05243176  0.66204374    -0.16800
C221        C  0.93657832  0.25871739  0.69692948    -0.15900
C222        C  0.95988326  0.23944880  0.68146110     0.08100
C223        C  0.98891474  0.21921737  0.66846786     0.10000
C224        C  0.01345858  0.19948434  0.66209227    -0.16800
C225        C  0.80043352  0.37575423  0.58882015    -0.10700
C226        C  0.79255336  0.37573160  0.54171003    -0.12300
C227        C  0.77860508  0.04473035  0.87607432    -0.10700
C228        C  0.79120098  0.01275419  0.85182505    -0.12300
C229        C  0.79125164  0.23895953  0.85192017    -0.10700
C230        C  0.77864634  0.20697327  0.87615430    -0.12300
C231        C  0.59144208  0.01207637  0.19746884    -0.15900
C232        C  0.56774708  0.49305291  0.18320357     0.08100
C233        C  0.53904354  0.47177241  0.17024044     0.10000
C234        C  0.51507345  0.45057628  0.16357405    -0.16800
C235        C  0.59137114  0.23917747  0.19748952    -0.15900
C236        C  0.56766594  0.25816171  0.18322240     0.08100
C237        C  0.53895949  0.27941716  0.17024832     0.10000
C238        C  0.51499682  0.30062079  0.16357302    -0.16800
C239        C  0.73593237  0.12576756  0.09270760    -0.10700
C240        C  0.74365753  0.12578633  0.04566131    -0.12300
C241        C  0.74179726  0.49060235  0.35129951    -0.10700
C242        C  0.75493521  0.45796800  0.37400630    -0.12300
C243        C  0.74176914  0.26085889  0.35130396    -0.10700
C244        C  0.75491048  0.29349130  0.37401528    -0.12300
C245        C  0.61201412  0.12578600  0.78847360    -0.15900
C246        C  0.63508607  0.12581752  0.81642420     0.08100
C247        C  0.66326541  0.12584722  0.84614421     0.10000
C248        C  0.68732926  0.12586115  0.87139826    -0.16800
C249        C  0.43763836  0.49316816  0.68181106    -0.15900
C250        C  0.46109665  0.01259542  0.69681594     0.08100
C251        C  0.49036852  0.03286181  0.70856675     0.10000
C252        C  0.51508462  0.05248797  0.71360117    -0.16800
C253        C  0.51503390  0.19883895  0.71354052    -0.15900
C254        C  0.49031064  0.21843761  0.70852205     0.08100
C255        C  0.46103517  0.23869869  0.69680902     0.10000
C256        C  0.43757819  0.25813926  0.68183324    -0.16800
C257        C  0.58337332  0.12568650  0.59591678    -0.15900
C258        C  0.59183183  0.12567311  0.54970800     0.08100
C259        C  0.60406870  0.12566392  0.49702906     0.10000
C260        C  0.61591983  0.12566321  0.45313953    -0.16800
C261        C  0.84592446  0.37572365  0.36671804    -0.15900
C262        C  0.87037475  0.37572857  0.34322368     0.08100
C263        C  0.89929428  0.37573875  0.31646686     0.10000
C264        C  0.92287264  0.37575304  0.29041378    -0.16800
C265        C  0.01900597  0.30227264  0.21410304    -0.15900
C266        C  0.04354697  0.28248881  0.20801156     0.08100
C267        C  0.07257194  0.26219210  0.19521757     0.10000
C268        C  0.09584864  0.24288964  0.17972663    -0.16800
C269        C  0.01901521  0.44934770  0.21420304    -0.15900
C270        C  0.04355415  0.46914602  0.20810206     0.08100
C271        C  0.07257349  0.48945710  0.19527358     0.10000
C272        C  0.09584473  0.00876654  0.17975049    -0.16800
C273        C  0.91301947  0.37597409  0.95790906    -0.15900
C274        C  0.92579126  0.37596804  0.00119909     0.08100
C275        C  0.93953333  0.37594028  0.05288600     0.10000
C276        C  0.94921440  0.37590326  0.09848201    -0.16800
C277        C  0.94811556  0.87578001  0.25076824     0.89000
C278        C  0.96996129  0.83247894  0.25368991    -0.51200
C279        C  0.99235739  0.83319104  0.21491434     0.12000
C280        C  0.99049902  0.87583166  0.17685783     0.22900
C281        C  0.96997232  0.91907431  0.25376302    -0.51900
C282        C  0.99236736  0.91841637  0.21498500     0.12100
C283        C  0.93507506  0.87582372  0.19337431    -0.51400
C284        C  0.95720457  0.87585171  0.15483320     0.12600
H285        H  0.96888529  0.80557914  0.28493408     0.17200
H286        H  0.00861508  0.87585412  0.14521611     0.02900
H287        H  0.96890084  0.94593250  0.28504788     0.17500
H288        H  0.91040888  0.87583494  0.18397404     0.17300
C289        C  0.58657258  0.62574667  0.74854816     0.89000
C290        C  0.56474615  0.66898668  0.75178704    -0.51200
C291        C  0.54185810  0.66828407  0.71337162     0.12000
C292        C  0.54325006  0.62568046  0.67523166     0.22900
C293        C  0.56477522  0.58246386  0.75183053    -0.51900
C294        C  0.54188748  0.58309693  0.71341280     0.12100
C295        C  0.59891512  0.62574098  0.69090881    -0.51400
C296        C  0.57626400  0.62570564  0.65260920     0.12600
H297        H  0.56613065  0.69575574  0.78316234     0.17200
H298        H  0.52469303  0.62565204  0.64391735     0.02900
H299        H  0.56617792  0.55571578  0.78323158     0.17500
H300        H  0.62345297  0.62576050  0.68121090     0.17300
Zn301      Zn  0.65868739  0.68230488  0.30989589     1.49700
Zn302      Zn  0.65712913  0.62568958  0.19854005     1.49400
Zn303      Zn  0.72007807  0.62572676  0.26887796     1.49100
Zn304      Zn  0.65870003  0.56907735  0.30990057     1.49500
O305        O  0.67418484  0.62570038  0.27207919    -1.81600
O306        O  0.62620147  0.71654347  0.26528640    -0.72200
O307        O  0.69039024  0.62573076  0.14235604    -0.72000
O308        O  0.73671158  0.68640740  0.30727136    -0.71500
O309        O  0.62859533  0.68063512  0.18570347    -0.72200
O310        O  0.69400222  0.72653370  0.32921650    -0.71800
O311        O  0.73477390  0.62574517  0.18875105    -0.72400
O312        O  0.69402589  0.52489338  0.32922968    -0.71800
O313        O  0.62863653  0.57068429  0.18568856    -0.72500
O314        O  0.73672693  0.56505557  0.30726557    -0.71900
O315        O  0.62623832  0.53478756  0.26528491    -0.72400
O316        O  0.63779502  0.58625182  0.37985208    -0.72300
O317        O  0.63779458  0.66509867  0.37985465    -0.72100
C318        C  0.61706858  0.71158224  0.21679896     0.79700
C319        C  0.71986019  0.62574671  0.14394949     0.80200
C320        C  0.72341942  0.72280235  0.32773351     0.79100
C321        C  0.72344188  0.52864874  0.32773573     0.79500
C322        C  0.61711792  0.53972211  0.21678706     0.80700
C323        C  0.63113882  0.62567132  0.40179760     0.79700
C324        C  0.74633455  0.62581290  0.98596325     0.89000
C325        C  0.76312785  0.58243886  0.96214896    -0.51200
C326        C  0.76414895  0.58249221  0.90702094     0.12000
C327        C  0.74830811  0.62586038  0.88089812     0.22900
C328        C  0.76314916  0.66919728  0.96219211    -0.51900
C329        C  0.76417055  0.66919390  0.90706422     0.12100
C330        C  0.71429352  0.62583552  0.95873064    -0.51400
C331        C  0.71527613  0.62585938  0.90395725     0.12600
H332        H  0.77309185  0.55424359  0.98655992     0.17200
H333        H  0.74903423  0.62588022  0.83618607     0.00900
H334        H  0.77312744  0.69736278  0.98663117     0.17500
H335        H  0.69266375  0.62582688  0.98089957     0.17300
Zn336      Zn  0.90170554  0.87594791  0.78622801     1.49700
Zn337      Zn  0.84534968  0.93373625  0.73276483     1.49400
Zn338      Zn  0.84539854  0.81798684  0.73282999     1.49100
Zn339      Zn  0.83662128  0.87588797  0.84416753     1.49500
O340        O  0.85682648  0.87588909  0.77347284    -1.81600
O341        O  0.92203621  0.93091257  0.75141257    -0.72200
O342        O  0.82148932  0.91542025  0.66408261    -0.72000
O343        O  0.88445673  0.78235366  0.70834231    -0.71500
O344        O  0.88437816  0.96944002  0.70822934    -0.72200
O345        O  0.92208696  0.82102040  0.75144891    -0.71800
O346        O  0.82152933  0.83619701  0.66412327    -0.72400
O347        O  0.81118233  0.81613188  0.85479101    -0.71800
O348        O  0.81945422  0.97831675  0.78060441    -0.72500
O349        O  0.81952234  0.77339241  0.78070503    -0.71900
O350        O  0.81116244  0.93561389  0.85474597    -0.72400
O351        O  0.86808523  0.87592477  0.90494602    -0.72300
O352        O  0.91373347  0.87597638  0.86421535    -0.72100
C353        C  0.91295351  0.96361921  0.72007791     0.79700
C354        C  0.81461856  0.87579177  0.64203002     0.80200
C355        C  0.91302923  0.78826174  0.72016350     0.79100
C356        C  0.80781495  0.77813766  0.82754848     0.79500
C357        C  0.80776686  0.97358421  0.82746664     0.80700
C358        C  0.89754221  0.87596006  0.90663257     0.79700
C359        C  0.78873715  0.87572504  0.48221765     0.89000
C360        C  0.77152636  0.83233525  0.45903430    -0.51200
C361        C  0.76951693  0.83215080  0.40397292     0.12000
C362        C  0.78484445  0.87572602  0.37724706     0.22900
C363        C  0.82023117  0.87572097  0.45412877    -0.51900
C364        C  0.81831899  0.87572161  0.39944109     0.12100
C365        C  0.77153996  0.91911830  0.45902624    -0.51400
C366        C  0.76953076  0.91930421  0.40396614     0.12600
H367        H  0.76215924  0.80408670  0.48384652     0.17200
H368        H  0.78335479  0.87572728  0.33257445     0.02900
H369        H  0.84224131  0.87571967  0.47571203     0.17500
H370        H  0.76218140  0.94736899  0.48383304     0.17300
C371        C  0.44461792  0.87566996  0.12725402     0.89000
C372        C  0.46632571  0.91895724  0.12378046    -0.51200
C373        C  0.48923227  0.91830929  0.16206877     0.12000
C374        C  0.48810642  0.87561889  0.20008208     0.22900
C375        C  0.46627757  0.83233573  0.12378130    -0.51900
C376        C  0.48918469  0.83293033  0.16207102     0.12100
C377        C  0.43242394  0.87567923  0.18494877    -0.51400
C378        C  0.45522328  0.87565209  0.22292616     0.12600
H379        H  0.46454268  0.94615862  0.09293488     0.17200
H380        H  0.50674929  0.87559746  0.23124522     0.02900
H381        H  0.46446596  0.80514423  0.09293368     0.17500
H382        H  0.40791325  0.87570411  0.19492401     0.17300
C383        C  0.08427351  0.62589610  0.62483931     0.89000
C384        C  0.06237436  0.58261622  0.62204140    -0.51200
C385        C  0.04006415  0.58331904  0.66098715     0.12000
C386        C  0.04204992  0.62591916  0.69905751     0.22900
C387        C  0.06242080  0.66922403  0.62206359    -0.51900
C388        C  0.04010994  0.66854539  0.66101115     0.12100
C389        C  0.09743537  0.62586719  0.68216048    -0.51400
C390        C  0.07538607  0.62587967  0.72084296     0.12600
H391        H  0.06335763  0.55573723  0.59077094     0.17200
H392        H  0.02401439  0.62592836  0.73083933     0.02900
H393        H  0.06343288  0.69611804  0.59080720     0.17500
H394        H  0.12211961  0.62584126  0.69140765     0.17300
Zn395      Zn  0.18685727  0.68366882  0.14297590     1.49700
Zn396      Zn  0.13041500  0.62583622  0.08989190     1.49400
Zn397      Zn  0.19532421  0.62585999  0.03167536     1.49100
Zn398      Zn  0.18685527  0.56797732  0.14292648     1.49500
O399        O  0.17529051  0.62583648  0.10242996    -1.81600
O400        O  0.14790530  0.71917256  0.16798965    -0.72200
O401        O  0.11822613  0.62583021  0.01194352    -0.72000
O402        O  0.22065778  0.68548080  0.02074735    -0.71500
O403        O  0.11016768  0.68075754  0.12486396    -0.72200
O404        O  0.21242353  0.72836127  0.09475929    -0.71800
O405        O  0.16384036  0.62586417  0.97112839    -0.72400
O406        O  0.21241412  0.52332079  0.09467749    -0.71800
O407        O  0.11015986  0.57092141  0.12489421    -0.72500
O408        O  0.22066740  0.56626321  0.02070801    -0.71900
O409        O  0.14790282  0.53246300  0.16794365    -0.72400
O410        O  0.21098736  0.58618334  0.21130756    -0.72300
O411        O  0.21098264  0.66541225  0.21135293    -0.72100
C412        C  0.11931462  0.71336763  0.15627161     0.79700
C413        C  0.13439488  0.62584744  0.96949740     0.80200
C414        C  0.22398400  0.72355263  0.04781498     0.79100
C415        C  0.22398501  0.52816950  0.04774466     0.79500
C416        C  0.11930917  0.53828985  0.15627231     0.80700
C417        C  0.21793415  0.62578845  0.23333323     0.79700
C418        C  0.24374204  0.62571015  0.39305827     0.89000
C419        C  0.26098154  0.66904896  0.41629264    -0.51200
C420        C  0.26302270  0.66905500  0.47134543     0.12000
C421        C  0.24756925  0.62567424  0.49801415     0.22900
C422        C  0.26096556  0.58234821  0.41626313    -0.51900
C423        C  0.26300843  0.58230480  0.47131634     0.12100
C424        C  0.21222278  0.62570838  0.42108416    -0.51400
C425        C  0.21408521  0.62569212  0.47577948     0.12600
H426        H  0.27058486  0.69714436  0.39153186     0.17200
H427        H  0.24908430  0.62566076  0.54268762     0.02900
H428        H  0.27056324  0.55427037  0.39148238     0.17500
H429        H  0.19023249  0.62573066  0.39944588     0.17300
Zn430      Zn  0.34660216  0.93350611  0.64366163     1.49700
Zn431      Zn  0.34657318  0.81790399  0.64372157     1.49400
Zn432      Zn  0.33801129  0.87568255  0.53196788     1.49100
Zn433      Zn  0.40302299  0.87566488  0.59205738     1.49500
O434        O  0.35811126  0.87568896  0.60325548    -1.81600
O435        O  0.32213785  0.91533245  0.71105644    -0.72200
O436        O  0.32065678  0.77340449  0.59549426    -0.72000
O437        O  0.31240714  0.93558437  0.52086636    -0.71500
O438        O  0.32211400  0.83613980  0.71110239    -0.72200
O439        O  0.32069312  0.97799128  0.59540994    -0.71800
O440        O  0.31241262  0.81576674  0.52089759    -0.72400
O441        O  0.41534717  0.87566384  0.51458543    -0.71800
O442        O  0.38550254  0.78213438  0.66950026    -0.72500
O443        O  0.36978176  0.87567915  0.47239400    -0.71900
O444        O  0.42321405  0.82071204  0.62740661    -0.72400
O445        O  0.42324762  0.93058976  0.62741452    -0.72300
O446        O  0.38554923  0.96925013  0.66941966    -0.72100
C447        C  0.31487713  0.87574828  0.73262735     0.79700
C448        C  0.30885659  0.77798520  0.54844210     0.80200
C449        C  0.30886971  0.97338281  0.54837896     0.79100
C450        C  0.39924987  0.87566939  0.47167631     0.79500
C451        C  0.41408367  0.78794293  0.65838210     0.80700
C452        C  0.41413063  0.96338944  0.65834847     0.79700
C453        C  0.28664427  0.87584163  0.89023203     0.89000
C454        C  0.26939177  0.83243043  0.91307441    -0.51200
C455        C  0.26737870  0.83253740  0.96812945     0.12000
C456        C  0.28272245  0.87587712  0.99504372     0.22900
C457        C  0.26940379  0.91927317  0.91302790    -0.51900
C458        C  0.26739000  0.91920288  0.96808429     0.12100
C459        C  0.31809878  0.87584737  0.91912996    -0.51400
C460        C  0.31607151  0.87586442  0.97368261     0.12600
H461        H  0.25998936  0.80412456  0.88816300     0.17200
H462        H  0.28126166  0.87589040  0.03969661     0.02900
H463        H  0.26000598  0.94756109  0.88808554     0.17500
H464        H  0.34015600  0.87582931  0.89821020     0.17300
C465        C  0.29963692  0.87577957  0.78456056    -0.10700
C466        C  0.29082803  0.87581306  0.83095165    -0.12300
C467        C  0.29171339  0.73891319  0.52458250    -0.10700
C468        C  0.27836093  0.70679906  0.50145725    -0.12300
C469        C  0.27835372  0.54455071  0.50140139    -0.10700
C470        C  0.29171701  0.51244017  0.52451238    -0.12300
C471        C  0.24001773  0.62573609  0.33357671    -0.10700
C472        C  0.23218784  0.62576315  0.28645831    -0.12300
C473        C  0.25278193  0.79464253  0.99858514    -0.10700
C474        C  0.24030771  0.76272048  0.02306910    -0.12300
C475        C  0.24031237  0.98902374  0.02297986    -0.10700
C476        C  0.25279067  0.95710864  0.99850430    -0.12300
C477        C  0.10947077  0.62587373  0.58501679    -0.15900
C478        C  0.13303135  0.62583276  0.55884997     0.08100
C479        C  0.16195432  0.62577384  0.53198084     0.10000
C480        C  0.18642291  0.62572759  0.50846764    -0.16800
C481        C  0.08344234  0.62586531  0.77715460    -0.15900
C482        C  0.09296203  0.62585708  0.82284172     0.08100
C483        C  0.10639463  0.62585116  0.87475167     0.10000
C484        C  0.11894891  0.62584851  0.91821768    -0.16800
C485        C  0.34339575  0.87583977  0.00729658    -0.15900
C486        C  0.36744255  0.87580155  0.03226011     0.08100
C487        C  0.39583339  0.87574762  0.06080429     0.10000
C488        C  0.41912929  0.87570497  0.08787689    -0.16800
C489        C  0.44837607  0.87565144  0.27947630    -0.15900
C490        C  0.43985402  0.87565266  0.32549888     0.08100
C491        C  0.42717195  0.87565723  0.37760636     0.10000
C492        C  0.41480768  0.87566309  0.42090700    -0.16800
C493        C  0.93648053  0.99320237  0.69682000    -0.15900
C494        C  0.95978330  0.51249131  0.68135584     0.08100
C495        C  0.98882297  0.53272199  0.66838986     0.10000
C496        C  0.01338124  0.55243175  0.66204376    -0.16800
C497        C  0.93657827  0.75871732  0.69692945    -0.15900
C498        C  0.95988321  0.73944871  0.68146108     0.08100
C499        C  0.98891469  0.71921729  0.66846785     0.10000
C500        C  0.01345853  0.69948427  0.66209227    -0.16800
C501        C  0.80043350  0.87575423  0.58882018    -0.10700
C502        C  0.79255334  0.87573158  0.54171005    -0.12300
C503        C  0.77860508  0.54473033  0.87607432    -0.10700
C504        C  0.79120096  0.51275415  0.85182505    -0.12300
C505        C  0.79125169  0.73895955  0.85192023    -0.10700
C506        C  0.77864638  0.70697328  0.87615433    -0.12300
C507        C  0.59144202  0.51207641  0.19746886    -0.15900
C508        C  0.56774714  0.99305287  0.18320355     0.08100
C509        C  0.53904358  0.97177240  0.17024042     0.10000
C510        C  0.51507349  0.95057630  0.16357403    -0.16800
C511        C  0.59137116  0.73917745  0.19748950    -0.15900
C512        C  0.56766595  0.75816167  0.18322240     0.08100
C513        C  0.53895950  0.77941712  0.17024834     0.10000
C514        C  0.51499684  0.80062077  0.16357303    -0.16800
C515        C  0.73593239  0.62576755  0.09270760    -0.10700
C516        C  0.74365755  0.62578632  0.04566131    -0.12300
C517        C  0.74179727  0.99060234  0.35129954    -0.10700
C518        C  0.75493521  0.95796798  0.37400632    -0.12300
C519        C  0.74176913  0.76085886  0.35130399    -0.10700
C520        C  0.75491048  0.79349127  0.37401529    -0.12300
C521        C  0.61201415  0.62578599  0.78847365    -0.15900
C522        C  0.63508610  0.62581749  0.81642423     0.08100
C523        C  0.66326545  0.62584719  0.84614422     0.10000
C524        C  0.68732930  0.62586113  0.87139825    -0.16800
C525        C  0.43763836  0.99316809  0.68181107    -0.15900
C526        C  0.46109667  0.51259546  0.69681592     0.08100
C527        C  0.49036855  0.53286180  0.70856673     0.10000
C528        C  0.51508466  0.55248793  0.71360114    -0.16800
C529        C  0.51503392  0.69883888  0.71354053    -0.15900
C530        C  0.49031065  0.71843753  0.70852206     0.08100
C531        C  0.46103519  0.73869861  0.69680902     0.10000
C532        C  0.43757821  0.75813919  0.68183323    -0.16800
C533        C  0.58337338  0.62568651  0.59591681    -0.15900
C534        C  0.59183186  0.62567312  0.54970801     0.08100
C535        C  0.60406869  0.62566391  0.49702904     0.10000
C536        C  0.61591979  0.62566319  0.45313950    -0.16800
C537        C  0.84592446  0.87572365  0.36671805    -0.15900
C538        C  0.87037474  0.87572859  0.34322367     0.08100
C539        C  0.89929427  0.87573878  0.31646682     0.10000
C540        C  0.92287263  0.87575306  0.29041375    -0.16800
C541        C  0.01900596  0.80227254  0.21410305    -0.15900
C542        C  0.04354696  0.78248872  0.20801153     0.08100
C543        C  0.07257194  0.76219207  0.19521750     0.10000
C544        C  0.09584865  0.74288964  0.17972654    -0.16800
C545        C  0.01901527  0.94934761  0.21420304    -0.15900
C546        C  0.04355420  0.96914593  0.20810206     0.08100
C547        C  0.07257354  0.98945704  0.19527358     0.10000
C548        C  0.09584469  0.50876657  0.17975048    -0.16800
C549        C  0.91301954  0.87597413  0.95790903    -0.15900
C550        C  0.92579134  0.87596806  0.00119905     0.08100
C551        C  0.93953340  0.87594026  0.05288597     0.10000
C552        C  0.94921446  0.87590323  0.09848199    -0.16800
loop_ 
_geom_bond_atom_site_label_1 
_geom_bond_atom_site_label_2 
_geom_bond_distance 
_geom_bond_site_symmetry_2 
_ccdc_geom_bond_type 
C1            C2   1.543       .  S
C1            C7   1.529       .  S
C1            C5   1.543       .  S
C1          C264   1.473       .  S
C2            H9   1.086       .  S
C2            C3   1.369       .  D
C3            C4   1.531       .  S
C3          C265   1.443   1_655  S
C4            C8   1.533       .  S
C4            C6   1.531       .  S
C4           H10   1.112   1_655  S
C5           H11   1.086       .  S
C5            C6   1.369       .  D
C6          C269   1.443   1_655  S
C7           H12   1.088       .  S
C7            C8   1.357       .  D
C8          C276   1.439       .  S
C13          C14   1.542       .  S
C13          C19   1.531       .  S
C13          C17   1.542       .  S
C13         C245   1.474       .  S
C14          H21   1.086       .  S
C14          C15   1.368       .  D
C15          C16   1.531       .  S
C15         C253   1.442       .  S
C16          C20   1.535       .  S
C16          C18   1.531       .  S
C16          H22   1.112       .  S
C17          H23   1.086       .  S
C17          C18   1.368       .  D
C18         C252   1.442       .  S
C19          H24   1.087       .  S
C19          C20   1.359       .  D
C20         C257   1.444       .  S
Zn25         O29   1.970       .  S
Zn25         O30   2.025       .  S
Zn25         O34   2.023       .  S
Zn25         O41   2.022       .  S
Zn26         O29   1.965       .  S
Zn26         O31   2.009       .  S
Zn26         O33   2.002       .  S
Zn26         O37   2.002       .  S
Zn27         O29   1.982       .  S
Zn27         O32   2.083       .  S
Zn27         O35   2.093       .  S
Zn27         O38   2.083       .  S
Zn28         O29   1.970       .  S
Zn28         O36   2.023       .  S
Zn28         O39   2.025       .  S
Zn28         O40   2.022       .  S
O30          C42   1.272       .  A
O31          C43   1.272       .  A
O32          C44   1.282       .  A
O33          C42   1.269       .  A
O34          C44   1.274       .  A
O35          C43   1.282       .  A
O36          C45   1.274       .  A
O37          C46   1.269       .  A
O38          C45   1.282       .  A
O39          C46   1.272       .  A
O40          C47   1.271       .  A
O41          C47   1.271       .  A
C42         C235   1.434       .  S
C43         C239   1.454       .  S
C44         C243   1.453       .  S
C45         C517   1.453   1_545  S
C46         C231   1.434       .  S
C47         C260   1.439       .  S
C48          C49   1.541       .  S
C48          C54   1.535       .  S
C48          C52   1.541       .  S
C48         C240   1.488   1_556  S
C49          H56   1.086       .  S
C49          C50   1.371       .  D
C50          C51   1.541       .  S
C50         C227   1.456       .  S
C51          C55   1.539       .  S
C51          C53   1.541       .  S
C51          H57   1.111       .  S
C52          H58   1.086       .  S
C52          C53   1.371       .  D
C53         C230   1.456       .  S
C54          H59   1.087       .  S
C54          C55   1.362       .  D
C55         C248   1.447       .  S
Zn60         O64   1.959       .  S
Zn60         O65   1.981       .  S
Zn60         O69   1.981       .  S
Zn60         O76   2.002       .  S
Zn61         O64   1.979       .  S
Zn61         O66   2.052       .  S
Zn61         O68   2.057       .  S
Zn61         O72   2.063       .  S
Zn62         O64   1.979       .  S
Zn62         O67   2.057       .  S
Zn62         O70   2.052       .  S
Zn62         O73   2.063       .  S
Zn63         O64   1.966       .  S
Zn63         O71   2.028       .  S
Zn63         O74   2.028       .  S
Zn63         O75   2.023       .  S
O65          C77   1.267       .  A
O66          C78   1.278       .  A
O67          C79   1.276       .  A
O68          C77   1.276       .  A
O69          C79   1.267       .  A
O70          C78   1.278       .  A
O71          C80   1.274       .  A
O72          C81   1.279       .  A
O73          C80   1.279       .  A
O74          C81   1.274       .  A
O75          C82   1.271       .  A
O76          C82   1.268       .  A
C77         C217   1.438       .  S
C78         C225   1.453       .  S
C79         C221   1.438       .  S
C80         C229   1.450       .  S
C81         C504   1.450       .  S
C82         C273   1.434       .  S
C83          C84   1.540       .  S
C83          C89   1.540       .  S
C83          C87   1.532       .  S
C83         C226   1.486       .  S
C84          H91   1.086       .  S
C84          C85   1.370       .  D
C85          C86   1.546       .  S
C85         C244   1.460       .  S
C86          C90   1.546       .  S
C86          C88   1.542       .  S
C86          H92   1.111       .  S
C87          H93   1.087       .  S
C87          C88   1.361       .  D
C88         C261   1.447       .  S
C89          H94   1.086       .  S
C89          C90   1.370       .  D
C90         C242   1.460       .  S
C95          C96   1.540       .  S
C95         C101   1.530       .  S
C95          C99   1.540       .  S
C95         C212   1.467       .  S
C96         H103   1.086       .  S
C96          C97   1.367       .  D
C97          C98   1.530       .  S
C97         C234   1.439       .  S
C98         C102   1.531       .  S
C98         C100   1.530       .  S
C98         H104   1.112       .  S
C99         H105   1.086       .  S
C99         C100   1.367       .  D
C100        C238   1.439       .  S
C101        H106   1.088       .  S
C101        C102   1.358       .  D
C102        C213   1.438       .  S
C107        C108   1.544       .  S
C107        C113   1.529       .  S
C107        C111   1.544       .  S
C107        C201   1.475       .  S
C108        H115   1.086       .  S
C108        C109   1.370       .  D
C109        C110   1.530       .  S
C109        C220   1.443       .  S
C110        C114   1.533       .  S
C110        C112   1.530       .  S
C110        H116   1.112       .  S
C111        H117   1.086       .  S
C111        C112   1.370       .  D
C112        C224   1.443       .  S
C113        H118   1.088       .  S
C113        C114   1.357       .  D
C114        C205   1.439       .  S
Zn119       O123   1.978       .  S
Zn119       O124   2.056       .  S
Zn119       O128   2.063       .  S
Zn119       O135   2.051       .  S
Zn120       O123   1.958       .  S
Zn120       O125   2.003       .  S
Zn120       O127   1.981       .  S
Zn120       O131   1.981       .  S
Zn121       O123   1.964       .  S
Zn121       O126   2.023       .  S
Zn121       O129   2.019   1_554  S
Zn121       O132   2.023       .  S
Zn122       O123   1.978       .  S
Zn122       O130   2.063       .  S
Zn122       O133   2.055       .  S
Zn122       O134   2.051       .  S
O124        C136   1.276       .  A
O125        C137   1.268   1_554  A
O126        C138   1.274       .  A
O127        C136   1.267       .  A
O128        C138   1.279       .  A
O129        C137   1.270       .  A
O130        C139   1.279       .  A
O131        C140   1.267       .  A
O132        C139   1.274       .  A
O133        C140   1.276       .  A
O134        C141   1.278       .  A
O135        C141   1.278       .  A
C136        C268   1.437       .  S
C137        C208   1.434       .  S
C138        C198   1.448       .  S
C139        C475   1.448   1_545  S
C140        C272   1.437       .  S
C141        C196   1.452       .  S
C142        C143   1.540       .  S
C142        C148   1.532       .  S
C142        C146   1.540       .  S
C142        C195   1.485       .  S
C143        H150   1.086       .  S
C143        C144   1.370       .  D
C144        C145   1.544       .  S
C144        C192   1.456       .  S
C145        C149   1.543       .  S
C145        C147   1.544       .  S
C145        H151   1.111       .  S
C146        H152   1.086       .  S
C146        C147   1.370       .  D
C147        C193   1.457       .  S
C148        H153   1.087       .  S
C148        C149   1.361       .  D
C149        C204   1.448       .  S
Zn154       O158   1.979       .  S
Zn154       O159   2.050       .  S
Zn154       O163   2.059       .  S
Zn154       O170   2.057       .  S
Zn155       O158   1.979       .  S
Zn155       O160   2.059       .  S
Zn155       O162   2.051       .  S
Zn155       O166   2.057       .  S
Zn156       O158   1.966       .  S
Zn156       O161   2.035       .  S
Zn156       O164   2.035       .  S
Zn156       O167   2.024       .  S
Zn157       O158   1.959       .  S
Zn157       O165   2.000       .  S
Zn157       O168   1.979       .  S
Zn157       O169   1.979       .  S
O159        C171   1.277       .  A
O160        C172   1.278       .  A
O161        C173   1.275       .  A
O162        C171   1.277       .  A
O163        C173   1.278       .  A
O164        C172   1.275       .  A
O165        C174   1.268       .  A
O166        C175   1.276       .  A
O167        C174   1.271       .  A
O168        C175   1.266       .  A
O169        C176   1.266       .  A
O170        C176   1.276       .  A
C171        C189   1.452       .  S
C172        C191   1.450       .  S
C173        C470   1.451       .  S
C174        C216   1.433       .  S
C175        C256   1.437       .  S
C176        C249   1.436       .  S
C177        C178   1.542       .  S
C177        C183   1.531       .  S
C177        C181   1.542       .  S
C177        C190   1.485       .  S
C178        H185   1.086       .  S
C178        C179   1.371       .  D
C179        C180   1.539       .  S
C179        C197   1.454       .  S
C180        C184   1.537       .  S
C180        C182   1.540       .  S
C180        H186   1.112   1_556  S
C181        H187   1.086       .  S
C181        C182   1.371       .  D
C182        C200   1.454       .  S
C183        H188   1.087       .  S
C183        C184   1.359       .  D
C184        C209   1.440   1_556  S
C189        C190   1.216       .  T
C191        C192   1.215       .  T
C193        C194   1.215       .  T
C194        C449   1.451   1_545  S
C195        C196   1.216       .  T
C197        C198   1.214   1_556  T
C199        C415   1.448       .  S
C199        C200   1.214   1_554  T
C201        C202   1.210       .  T
C202        C203   1.419       .  S
C203        C204   1.210       .  T
C205        C206   1.204       .  T
C206        C207   1.410       .  S
C207        C208   1.205       .  T
C209        C210   1.205       .  T
C210        C211   1.411       .  S
C211        C212   1.205       .  T
C213        C214   1.203       .  T
C214        C215   1.409       .  S
C215        C216   1.204       .  T
C217        C494   1.208       .  T
C218        C493   1.208   1_545  T
C218        C219   1.415       .  S
C219        C220   1.207   1_655  T
C221        C222   1.208       .  T
C222        C223   1.415       .  S
C223        C224   1.207   1_655  T
C225        C226   1.216       .  T
C227        C228   1.214       .  T
C228        C357   1.450   1_545  S
C229        C230   1.214       .  T
C231        C508   1.205   1_545  T
C232        C507   1.205       .  T
C232        C233   1.411       .  S
C233        C234   1.204       .  T
C235        C236   1.205       .  T
C236        C237   1.411       .  S
C237        C238   1.204       .  T
C239        C240   1.218       .  T
C241        C321   1.453       .  S
C241        C242   1.217       .  T
C243        C244   1.217       .  T
C245        C246   1.210       .  T
C246        C247   1.418       .  S
C247        C248   1.209       .  T
C249        C526   1.207       .  T
C250        C525   1.207   1_545  T
C250        C251   1.414       .  S
C251        C252   1.207       .  T
C253        C254   1.207       .  T
C254        C255   1.414       .  S
C255        C256   1.207       .  T
C257        C258   1.207       .  T
C258        C259   1.415       .  S
C259        C260   1.208       .  T
C261        C262   1.209       .  T
C262        C263   1.418       .  S
C263        C264   1.209       .  T
C265        C266   1.207       .  T
C266        C267   1.415       .  S
C267        C268   1.207       .  T
C269        C270   1.207       .  T
C270        C271   1.415       .  S
C271        C548   1.207       .  T
C272        C547   1.207   1_545  T
C273        C274   1.205   1_556  T
C274        C275   1.411       .  S
C275        C276   1.205       .  T
C277        C278   1.543       .  S
C277        C283   1.529       .  S
C277        C281   1.543       .  S
C277        C540   1.473       .  S
C278        H285   1.086       .  S
C278        C279   1.369       .  D
C279        C280   1.531       .  S
C279        C541   1.443   1_655  S
C280        C284   1.533       .  S
C280        C282   1.531       .  S
C280        H286   1.112   1_655  S
C281        H287   1.086       .  S
C281        C282   1.369       .  D
C282        C545   1.443   1_655  S
C283        H288   1.088       .  S
C283        C284   1.357       .  D
C284        C552   1.439       .  S
C289        C290   1.542       .  S
C289        C295   1.531       .  S
C289        C293   1.542       .  S
C289        C521   1.474       .  S
C290        H297   1.086       .  S
C290        C291   1.368       .  D
C291        C292   1.531       .  S
C291        C529   1.442       .  S
C292        C296   1.535       .  S
C292        C294   1.531       .  S
C292        H298   1.112       .  S
C293        H299   1.086       .  S
C293        C294   1.368       .  D
C294        C528   1.442       .  S
C295        H300   1.087       .  S
C295        C296   1.359       .  D
C296        C533   1.444       .  S
Zn301       O305   1.970       .  S
Zn301       O306   2.025       .  S
Zn301       O310   2.023       .  S
Zn301       O317   2.022       .  S
Zn302       O305   1.965       .  S
Zn302       O307   2.009       .  S
Zn302       O309   2.002       .  S
Zn302       O313   2.002       .  S
Zn303       O305   1.982       .  S
Zn303       O308   2.083       .  S
Zn303       O311   2.093       .  S
Zn303       O314   2.083       .  S
Zn304       O305   1.970       .  S
Zn304       O312   2.023       .  S
Zn304       O315   2.025       .  S
Zn304       O316   2.022       .  S
O306        C318   1.272       .  A
O307        C319   1.272       .  A
O308        C320   1.282       .  A
O309        C318   1.269       .  A
O310        C320   1.274       .  A
O311        C319   1.282       .  A
O312        C321   1.274       .  A
O313        C322   1.269       .  A
O314        C321   1.282       .  A
O315        C322   1.272       .  A
O316        C323   1.271       .  A
O317        C323   1.271       .  A
C318        C511   1.434       .  S
C319        C515   1.454       .  S
C320        C519   1.453       .  S
C322        C507   1.434       .  S
C323        C536   1.439       .  S
C324        C325   1.541       .  S
C324        C330   1.535       .  S
C324        C328   1.541       .  S
C324        C516   1.488   1_556  S
C325        H332   1.086       .  S
C325        C326   1.371       .  D
C326        C327   1.541       .  S
C326        C503   1.456       .  S
C327        C331   1.539       .  S
C327        C329   1.541       .  S
C327        H333   1.111       .  S
C328        H334   1.086       .  S
C328        C329   1.371       .  D
C329        C506   1.456       .  S
C330        H335   1.087       .  S
C330        C331   1.362       .  D
C331        C524   1.447       .  S
Zn336       O340   1.959       .  S
Zn336       O341   1.981       .  S
Zn336       O345   1.981       .  S
Zn336       O352   2.002       .  S
Zn337       O340   1.979       .  S
Zn337       O342   2.052       .  S
Zn337       O344   2.057       .  S
Zn337       O348   2.063       .  S
Zn338       O340   1.979       .  S
Zn338       O343   2.057       .  S
Zn338       O346   2.052       .  S
Zn338       O349   2.063       .  S
Zn339       O340   1.966       .  S
Zn339       O347   2.028       .  S
Zn339       O350   2.028       .  S
Zn339       O351   2.023       .  S
O341        C353   1.267       .  A
O342        C354   1.278       .  A
O343        C355   1.276       .  A
O344        C353   1.276       .  A
O345        C355   1.267       .  A
O346        C354   1.278       .  A
O347        C356   1.274       .  A
O348        C357   1.279       .  A
O349        C356   1.279       .  A
O350        C357   1.274       .  A
O351        C358   1.271       .  A
O352        C358   1.268       .  A
C353        C493   1.438       .  S
C354        C501   1.453       .  S
C355        C497   1.438       .  S
C356        C505   1.450       .  S
C358        C549   1.434       .  S
C359        C360   1.540       .  S
C359        C365   1.540       .  S
C359        C363   1.532       .  S
C359        C502   1.486       .  S
C360        H367   1.086       .  S
C360        C361   1.370       .  D
C361        C362   1.546       .  S
C361        C520   1.460       .  S
C362        C366   1.546       .  S
C362        C364   1.542       .  S
C362        H368   1.111       .  S
C363        H369   1.087       .  S
C363        C364   1.361       .  D
C364        C537   1.447       .  S
C365        H370   1.086       .  S
C365        C366   1.370       .  D
C366        C518   1.460       .  S
C371        C372   1.540       .  S
C371        C377   1.530       .  S
C371        C375   1.540       .  S
C371        C488   1.467       .  S
C372        H379   1.086       .  S
C372        C373   1.367       .  D
C373        C374   1.530       .  S
C373        C510   1.439       .  S
C374        C378   1.531       .  S
C374        C376   1.530       .  S
C374        H380   1.112       .  S
C375        H381   1.086       .  S
C375        C376   1.367       .  D
C376        C514   1.439       .  S
C377        H382   1.088       .  S
C377        C378   1.358       .  D
C378        C489   1.438       .  S
C383        C384   1.544       .  S
C383        C389   1.529       .  S
C383        C387   1.544       .  S
C383        C477   1.475       .  S
C384        H391   1.086       .  S
C384        C385   1.370       .  D
C385        C386   1.530       .  S
C385        C496   1.443       .  S
C386        C390   1.533       .  S
C386        C388   1.530       .  S
C386        H392   1.112       .  S
C387        H393   1.086       .  S
C387        C388   1.370       .  D
C388        C500   1.443       .  S
C389        H394   1.088       .  S
C389        C390   1.357       .  D
C390        C481   1.439       .  S
Zn395       O399   1.978       .  S
Zn395       O400   2.056       .  S
Zn395       O404   2.063       .  S
Zn395       O411   2.051       .  S
Zn396       O399   1.958       .  S
Zn396       O401   2.003       .  S
Zn396       O403   1.981       .  S
Zn396       O407   1.981       .  S
Zn397       O399   1.964       .  S
Zn397       O402   2.023       .  S
Zn397       O405   2.019   1_554  S
Zn397       O408   2.023       .  S
Zn398       O399   1.978       .  S
Zn398       O406   2.063       .  S
Zn398       O409   2.055       .  S
Zn398       O410   2.051       .  S
O400        C412   1.276       .  A
O401        C413   1.268   1_554  A
O402        C414   1.274       .  A
O403        C412   1.267       .  A
O404        C414   1.279       .  A
O405        C413   1.270       .  A
O406        C415   1.279       .  A
O407        C416   1.267       .  A
O408        C415   1.274       .  A
O409        C416   1.276       .  A
O410        C417   1.278       .  A
O411        C417   1.278       .  A
C412        C544   1.437       .  S
C413        C484   1.434       .  S
C414        C474   1.448       .  S
C416        C548   1.437       .  S
C417        C472   1.452       .  S
C418        C419   1.540       .  S
C418        C424   1.532       .  S
C418        C422   1.540       .  S
C418        C471   1.485       .  S
C419        H426   1.086       .  S
C419        C420   1.370       .  D
C420        C421   1.544       .  S
C420        C468   1.456       .  S
C421        C425   1.543       .  S
C421        C423   1.544       .  S
C421        H427   1.111       .  S
C422        H428   1.086       .  S
C422        C423   1.370       .  D
C423        C469   1.457       .  S
C424        H429   1.087       .  S
C424        C425   1.361       .  D
C425        C480   1.448       .  S
Zn430       O434   1.979       .  S
Zn430       O435   2.050       .  S
Zn430       O439   2.059       .  S
Zn430       O446   2.057       .  S
Zn431       O434   1.979       .  S
Zn431       O436   2.059       .  S
Zn431       O438   2.051       .  S
Zn431       O442   2.057       .  S
Zn432       O434   1.966       .  S
Zn432       O437   2.035       .  S
Zn432       O440   2.035       .  S
Zn432       O443   2.024       .  S
Zn433       O434   1.959       .  S
Zn433       O441   2.000       .  S
Zn433       O444   1.979       .  S
Zn433       O445   1.979       .  S
O435        C447   1.277       .  A
O436        C448   1.278       .  A
O437        C449   1.275       .  A
O438        C447   1.277       .  A
O439        C449   1.278       .  A
O440        C448   1.275       .  A
O441        C450   1.268       .  A
O442        C451   1.276       .  A
O443        C450   1.271       .  A
O444        C451   1.266       .  A
O445        C452   1.266       .  A
O446        C452   1.276       .  A
C447        C465   1.452       .  S
C448        C467   1.450       .  S
C450        C492   1.433       .  S
C451        C532   1.437       .  S
C452        C525   1.436       .  S
C453        C454   1.542       .  S
C453        C459   1.531       .  S
C453        C457   1.542       .  S
C453        C466   1.485       .  S
C454        H461   1.086       .  S
C454        C455   1.371       .  D
C455        C456   1.539       .  S
C455        C473   1.454       .  S
C456        C460   1.537       .  S
C456        C458   1.540       .  S
C456        H462   1.112   1_556  S
C457        H463   1.086       .  S
C457        C458   1.371       .  D
C458        C476   1.454       .  S
C459        H464   1.087       .  S
C459        C460   1.359       .  D
C460        C485   1.440   1_556  S
C465        C466   1.216       .  T
C467        C468   1.215       .  T
C469        C470   1.215       .  T
C471        C472   1.216       .  T
C473        C474   1.214   1_556  T
C475        C476   1.214   1_554  T
C477        C478   1.210       .  T
C478        C479   1.419       .  S
C479        C480   1.210       .  T
C481        C482   1.204       .  T
C482        C483   1.410       .  S
C483        C484   1.205       .  T
C485        C486   1.205       .  T
C486        C487   1.411       .  S
C487        C488   1.205       .  T
C489        C490   1.203       .  T
C490        C491   1.409       .  S
C491        C492   1.204       .  T
C494        C495   1.415       .  S
C495        C496   1.207   1_655  T
C497        C498   1.208       .  T
C498        C499   1.415       .  S
C499        C500   1.207   1_655  T
C501        C502   1.216       .  T
C503        C504   1.214       .  T
C505        C506   1.214       .  T
C508        C509   1.411       .  S
C509        C510   1.204       .  T
C511        C512   1.205       .  T
C512        C513   1.411       .  S
C513        C514   1.204       .  T
C515        C516   1.218       .  T
C517        C518   1.217       .  T
C519        C520   1.217       .  T
C521        C522   1.210       .  T
C522        C523   1.418       .  S
C523        C524   1.209       .  T
C526        C527   1.414       .  S
C527        C528   1.207       .  T
C529        C530   1.207       .  T
C530        C531   1.414       .  S
C531        C532   1.207       .  T
C533        C534   1.207       .  T
C534        C535   1.415       .  S
C535        C536   1.208       .  T
C537        C538   1.209       .  T
C538        C539   1.418       .  S
C539        C540   1.209       .  T
C541        C542   1.207       .  T
C542        C543   1.415       .  S
C543        C544   1.207       .  T
C545        C546   1.207       .  T
C546        C547   1.415       .  S
C549        C550   1.205   1_556  T
C550        C551   1.411       .  S
C551        C552   1.205       .  T
