geometry optimzed in LAMMPS
_audit_creation_date              2020-11-30 
_audit_creation_method            'lammps2cif' 
_symmetry_space_group_name_H-M    'P1' 
_symmetry_Int_Tables_number       1 
_symmetry_cell_setting            triclinic 
loop_ 
_symmetry_equiv_pos_as_xyz 
  x,y,z 
_cell_length_a                    56.04334239 
_cell_length_b                    37.10438109288723 
_cell_length_c                    27.541437790366036 
_cell_angle_alpha                 90.0051321241797 
_cell_angle_beta                  89.99073766583362 
_cell_angle_gamma                 89.99928523075603 
loop_ 
_atom_site_label 
_atom_site_type_symbol 
_atom_site_fract_x 
_atom_site_fract_y 
_atom_site_fract_z 
_atom_site_charge 
N1          N  0.60111124  0.43104982  0.57357321    -0.26700
N2          N  0.60434150  0.46398117  0.59050425    -0.34500
C3          C  0.58378847  0.48226431  0.58761566     0.01700
C4          C  0.56684946  0.46107814  0.56463843     0.07700
C5          C  0.57846548  0.42833245  0.55755048    -0.05400
H6          H  0.58293122  0.51132847  0.59064896     0.08400
H7          H  0.57231195  0.40668368  0.53439291     0.09600
Cu8        Cu  0.63698798  0.48981080  0.59238580     0.44200
Cu9        Cu  0.62932519  0.39536272  0.56091670     0.42000
Cu10       Cu  0.68790955  0.43994406  0.57023105     0.43900
N11         N  0.67024441  0.51378145  0.58944415    -0.34100
N12         N  0.68976533  0.49438094  0.58431932    -0.28300
C13         C  0.70865517  0.51389446  0.59896288    -0.04400
C14         C  0.70063218  0.54748704  0.61356212     0.07800
C15         C  0.67618150  0.54663468  0.60584778     0.01600
H16         H  0.72623309  0.50278386  0.60525735     0.09300
H17         H  0.66338744  0.56583269  0.61990698     0.08300
N18         N  0.68284810  0.38564917  0.55825461    -0.35500
N19         N  0.66209836  0.36889697  0.55385250    -0.27700
C20         C  0.66630927  0.33386068  0.54356911    -0.02900
C21         C  0.69080764  0.32877841  0.54210661     0.05700
C22         C  0.70059435  0.36205235  0.55135216     0.03800
H23         H  0.65266348  0.31395807  0.53633102     0.08900
H24         H  0.71935274  0.36896291  0.55119031     0.07700
N25         N  0.60109521  0.43277066  0.90481361    -0.26700
N26         N  0.60444880  0.46576743  0.88823418    -0.34500
C27         C  0.58387262  0.48402256  0.89063918     0.01700
C28         C  0.56681433  0.46277934  0.91317498     0.07700
C29         C  0.57835231  0.42997906  0.92019380    -0.05400
H30         H  0.58304938  0.51310357  0.88786722     0.08400
H31         H  0.57206955  0.40825801  0.94308334     0.09600
Cu32       Cu  0.63710018  0.49162790  0.88792623     0.44200
Cu33       Cu  0.62916097  0.39704515  0.91814333     0.42000
Cu34       Cu  0.68791824  0.44064191  0.90849239     0.43900
N35         N  0.67052554  0.51501146  0.89124523    -0.34100
N36         N  0.68993422  0.49525190  0.89566269    -0.28300
C37         C  0.70888365  0.51458717  0.88094413    -0.04400
C38         C  0.70103434  0.54840155  0.86693706     0.07800
C39         C  0.67661976  0.54789312  0.87518262     0.01600
H40         H  0.72632472  0.50320851  0.87396350     0.09300
H41         H  0.66389607  0.56733126  0.86147419     0.08300
N42         N  0.68256560  0.38638878  0.92048687    -0.35500
N43         N  0.66169639  0.37002781  0.92515005    -0.27700
C44         C  0.66562609  0.33494877  0.93557988    -0.02900
C45         C  0.69007764  0.32940449  0.93688026     0.05700
C46         C  0.70012778  0.36247231  0.92737396     0.03800
H47         H  0.65182426  0.31533457  0.94302286     0.08900
H48         H  0.71894195  0.36902905  0.92739915     0.07700
N49         N  0.71643549  0.57686155  0.73997106    -0.36000
N50         N  0.73162120  0.62751021  0.81236724    -0.56600
N51         N  0.74613565  0.67984497  0.73926704    -0.36000
N52         N  0.73119247  0.62713144  0.66682904    -0.56600
C53         C  0.70568561  0.56290152  0.77962077     0.27600
C54         C  0.70558801  0.56255879  0.70065661     0.27600
C55         C  0.74316795  0.70081011  0.77925881     0.27600
C56         C  0.74283106  0.70064505  0.69924469     0.27600
C57         C  0.72784351  0.59832244  0.84066755     0.36200
C58         C  0.74427053  0.65115696  0.83915611     0.36200
C59         C  0.72740176  0.59775685  0.63886403     0.36200
C60         C  0.74356981  0.65079710  0.63953925     0.36200
C61         C  0.68836920  0.53838094  0.76524349    -0.21300
C62         C  0.68832170  0.53814252  0.71559741    -0.21300
C63         C  0.73820425  0.73575068  0.76446155    -0.21300
C64         C  0.73798639  0.73564598  0.71398145    -0.21300
C65         C  0.73852985  0.60288270  0.88546816    -0.22300
C66         C  0.74936483  0.63611189  0.88425057    -0.22300
C67         C  0.73781059  0.60223532  0.59376988    -0.22300
C68         C  0.74846877  0.63560636  0.59443808    -0.22300
C69         C  0.71229619  0.57008428  0.82817028    -0.17700
C70         C  0.71202680  0.56942595  0.65192723    -0.17700
C71         C  0.74472470  0.68813671  0.65030418    -0.17700
C72         C  0.74538316  0.68845895  0.82820672    -0.17700
H73         H  0.67724192  0.52138462  0.78761111     0.15200
H74         H  0.67715244  0.52093022  0.69362306     0.15200
H75         H  0.73498745  0.75883229  0.78757025     0.15200
H76         H  0.73458121  0.75863903  0.69083194     0.15200
H77         H  0.73782250  0.58479495  0.91626457     0.13500
H78         H  0.75825817  0.64898946  0.91451956     0.13500
H79         H  0.73702285  0.58399583  0.56314042     0.13500
H80         H  0.75714712  0.64842284  0.56386326     0.13500
H81         H  0.73194830  0.59222393  0.73976092     0.26800
H82         H  0.75183553  0.65309876  0.73925502     0.26800
N83         N  0.60109286  0.55935100  0.40680530    -0.26700
N84         N  0.60461021  0.52639522  0.39022184    -0.34500
C85         C  0.58411248  0.50793928  0.39245868     0.01700
C86         C  0.56692541  0.52901765  0.41486075     0.07700
C87         C  0.57831350  0.56192026  0.42203248    -0.05400
H88         H  0.58341112  0.47885479  0.38960742     0.08400
H89         H  0.57188539  0.58359393  0.44484164     0.09600
Cu90       Cu  0.63737742  0.50092165  0.38982089     0.44200
Cu91       Cu  0.62899925  0.59539030  0.41991580     0.42000
Cu92       Cu  0.68797045  0.55263862  0.40823718     0.43900
N93         N  0.67093663  0.47795920  0.39213840    -0.34100
N94         N  0.69025504  0.49799166  0.39587193    -0.28300
C95         C  0.70922226  0.47882304  0.38085634    -0.04400
C96         C  0.70148133  0.44483677  0.36735077     0.07800
C97         C  0.67711178  0.44508957  0.37614054     0.01600
H98         H  0.72655995  0.49038025  0.37336654     0.09300
H99         H  0.66441536  0.42541922  0.36293534     0.08300
N100        N  0.68234540  0.60683263  0.42013962    -0.35500
N101        N  0.66141714  0.62286895  0.42567333    -0.27700
C102        C  0.66521323  0.65798048  0.43609396    -0.02900
C103        C  0.68963445  0.66389399  0.43646279     0.05700
C104        C  0.69980935  0.63100055  0.42641580     0.03800
H105        H  0.65135786  0.67734661  0.44427763     0.08900
H106        H  0.71865980  0.62469985  0.42584678     0.07700
N107        N  0.60105949  0.56071818  0.07216362    -0.26700
N108        N  0.60440292  0.52780223  0.08904822    -0.34500
C109        C  0.58392505  0.50933564  0.08608751     0.01700
C110        C  0.56690234  0.53042171  0.06322277     0.07700
C111        C  0.57840383  0.56326026  0.05614982    -0.05400
H112        H  0.58316377  0.48026608  0.08912360     0.08400
H113        H  0.57215617  0.58489694  0.03308195     0.09600
Cu114      Cu  0.63715263  0.50237242  0.09139920     0.44200
Cu115      Cu  0.62913915  0.59671605  0.05977666     0.42000
Cu116      Cu  0.68791184  0.55302473  0.07035219     0.43900
N117        N  0.67056362  0.47895615  0.08931772    -0.34100
N118        N  0.68999230  0.49862184  0.08457495    -0.28300
C119        C  0.70892103  0.47936333  0.09960646    -0.04400
C120        C  0.70101575  0.44567553  0.11404481     0.07800
C121        C  0.67660310  0.44620505  0.10590811     0.01600
H122        H  0.72641375  0.49068599  0.10619023     0.09300
H123        H  0.66385445  0.42682741  0.11968073     0.08300
N124        N  0.68260257  0.60725106  0.05824095    -0.35500
N125        N  0.66176911  0.62368371  0.05334876    -0.27700
C126        C  0.66580326  0.65875966  0.04302409    -0.02900
C127        C  0.69027487  0.66421657  0.04205606     0.05700
C128        C  0.70022868  0.63110116  0.05162892     0.03800
H129        H  0.65206473  0.67842704  0.03536169     0.08900
H130        H  0.71902945  0.62445666  0.05179889     0.07700
N131        N  0.71681202  0.41630634  0.24041459    -0.36000
N132        N  0.73164790  0.36613014  0.16723802    -0.56600
N133        N  0.74671091  0.31347995  0.23959217    -0.36000
N134        N  0.73214907  0.36574569  0.31275349    -0.56600
C135        C  0.70589705  0.43050176  0.20111365     0.27600
C136        C  0.70599396  0.43013379  0.28007234     0.27600
C137        C  0.74339774  0.29266025  0.19958511     0.27600
C138        C  0.74383647  0.29250267  0.27959057     0.27600
C139        C  0.72783886  0.39551282  0.13931789     0.36200
C140        C  0.74402850  0.34250049  0.13990126     0.36200
C141        C  0.72828568  0.39489397  0.34109028     0.36200
C142        C  0.74485117  0.34215506  0.33952526     0.36200
C143        C  0.68848564  0.45468073  0.21605971    -0.21300
C144        C  0.68853321  0.45442750  0.26572038    -0.21300
C145        C  0.73864507  0.25763794  0.21434153    -0.21300
C146        C  0.73893366  0.25753591  0.26481706    -0.21300
C147        C  0.73824854  0.39108430  0.09421227    -0.22300
C148        C  0.74891408  0.35771987  0.09481783    -0.22300
C149        C  0.73896807  0.39036621  0.38590078    -0.22300
C150        C  0.74988638  0.35719918  0.38465375    -0.22300
C151        C  0.71240845  0.42375999  0.15239998    -0.17700
C152        C  0.71267833  0.42306109  0.32860108    -0.17700
C153        C  0.74606677  0.30486483  0.32852679    -0.17700
C154        C  0.74521280  0.30516921  0.15063784    -0.17700
H155        H  0.67720758  0.47171467  0.19406028     0.15200
H156        H  0.67729504  0.47123207  0.28813110     0.15200
H157        H  0.73525997  0.23462657  0.19120748     0.15200
H158        H  0.73579615  0.23444001  0.28793898     0.15200
H159        H  0.73744128  0.40933937  0.06360598     0.13500
H160        H  0.75759234  0.34492933  0.06421994     0.13500
H161        H  0.73819881  0.40842454  0.41672721     0.13500
H162        H  0.75879560  0.34435203  0.41492435     0.13500
H163        H  0.73241276  0.40114170  0.24018706     0.26800
H164        H  0.75235618  0.34025212  0.23956524     0.26800
C165        C  0.55150623  0.51276242  0.45238465    -0.10200
C166        C  0.56345266  0.49496844  0.48967673    -0.04100
C167        C  0.55146397  0.47730133  0.52699636    -0.10200
C168        C  0.52631635  0.47719323  0.52750065     0.10700
C169        C  0.51372359  0.49530849  0.48978950    -0.02000
C170        C  0.52636679  0.51322995  0.45200439     0.10500
C171        C  0.51359450  0.53076107  0.41503459    -0.12000
C172        C  0.48870349  0.53096493  0.41512074    -0.12000
C173        C  0.47587178  0.51365617  0.45218687     0.10500
C174        C  0.48846612  0.49552814  0.48988539    -0.02000
C175        C  0.51348512  0.45985208  0.56453924    -0.12100
C176        C  0.48859568  0.46005443  0.56462372    -0.12100
C177        C  0.47582455  0.47761942  0.52768235     0.10700
C178        C  0.45068744  0.47814803  0.52735963    -0.10200
C179        C  0.43873736  0.49596986  0.49009649    -0.04100
C180        C  0.45072270  0.51360471  0.45274563    -0.10200
H181        H  0.52280935  0.54448328  0.38583386     0.08000
H182        H  0.47953660  0.54483691  0.38599090     0.08000
H183        H  0.52265116  0.44597278  0.59366406     0.08200
H184        H  0.47938140  0.44632335  0.59381796     0.08200
H185        H  0.58283846  0.49490257  0.48969543     0.04600
H186        H  0.41935164  0.49608304  0.49012567     0.04600
N187        N  0.40108741  0.55996304  0.40623958    -0.26700
N188        N  0.39782910  0.52703972  0.38930212    -0.34500
C189        C  0.41836524  0.50871242  0.39218562     0.01700
C190        C  0.43532854  0.52986414  0.41514439     0.07700
C191        C  0.42373855  0.56263143  0.42225402    -0.05400
H192        H  0.41919943  0.47964828  0.38912433     0.08400
H193        H  0.42991927  0.58427380  0.44539218     0.09600
Cu194      Cu  0.36515519  0.50130220  0.38725157     0.44200
Cu195      Cu  0.37289877  0.59573319  0.41879335     0.42000
Cu196      Cu  0.31428780  0.55119898  0.40963890     0.43900
N197        N  0.33187302  0.47740136  0.38990777    -0.34100
N198        N  0.31236885  0.49681408  0.39521528    -0.28300
C199        C  0.29345780  0.47739850  0.38044099    -0.04400
C200        C  0.30145209  0.44385914  0.36556251     0.07800
C201        C  0.32590681  0.44463856  0.37322375     0.01600
H202        H  0.27588239  0.48855912  0.37428186     0.09300
H203        H  0.33868140  0.42546833  0.35902353     0.08300
N204        N  0.31937900  0.60551983  0.42134827    -0.35500
N205        N  0.34013501  0.62226729  0.42565736    -0.27700
C206        C  0.33593454  0.65734737  0.43569182    -0.02900
C207        C  0.31143640  0.66246502  0.43707605     0.05700
C208        C  0.30164082  0.62916088  0.42805975     0.03800
H209        H  0.34958619  0.67725918  0.44283895     0.08900
H210        H  0.28288050  0.62226434  0.42826234     0.07700
N211        N  0.40105729  0.55823969  0.07375414    -0.26700
N212        N  0.39768472  0.52523779  0.09030089    -0.34500
C213        C  0.41824842  0.50695103  0.08786910     0.01700
C214        C  0.43532220  0.52818527  0.06536673     0.07700
C215        C  0.42380344  0.56100631  0.05838089    -0.05400
H216        H  0.41905562  0.47786828  0.09062863     0.08400
H217        H  0.43010474  0.58273881  0.03553274     0.09600
Cu218      Cu  0.36500773  0.49945875  0.09074831     0.44200
Cu219      Cu  0.37301200  0.59404585  0.06053451     0.42000
Cu220      Cu  0.31424382  0.55064307  0.07046626     0.43900
N221        N  0.33153341  0.47621634  0.08770591    -0.34100
N222        N  0.31215434  0.49604545  0.08331131    -0.28300
C223        C  0.29318113  0.47679281  0.09809755    -0.04400
C224        C  0.30098168  0.44296256  0.11213936     0.07800
C225        C  0.32539478  0.44337700  0.10385874     0.01600
H226        H  0.27576131  0.48824004  0.10509421     0.09300
H227        H  0.33809397  0.42389864  0.11755734     0.08300
N228        N  0.31962569  0.60489051  0.05855988    -0.35500
N229        N  0.34050503  0.62120001  0.05378105    -0.27700
C230        C  0.33659362  0.65629797  0.04342501    -0.02900
C231        C  0.31214306  0.66190606  0.04229978     0.05700
C232        C  0.30207664  0.62885277  0.05182805     0.03800
H233        H  0.35040301  0.67588031  0.03588897     0.08900
H234        H  0.28325684  0.62233325  0.05189175     0.07700
N235        N  0.28553307  0.41461959  0.23913575    -0.36000
N236        N  0.27035392  0.36392265  0.16676905    -0.56600
N237        N  0.25590596  0.31156897  0.23987968    -0.36000
N238        N  0.27083359  0.36430686  0.31227927    -0.56600
C239        C  0.29628490  0.42855857  0.19947394     0.27600
C240        C  0.29639778  0.42891242  0.27843995     0.27600
C241        C  0.25887945  0.29060988  0.19988810     0.27600
C242        C  0.25925412  0.29077686  0.27989165     0.27600
C243        C  0.27413779  0.39309614  0.13844537     0.36200
C244        C  0.25771582  0.34025502  0.13998789     0.36200
C245        C  0.27461873  0.39368240  0.34024416     0.36200
C246        C  0.25848572  0.34061872  0.33959026     0.36200
C247        C  0.31360909  0.45307332  0.21383197    -0.21300
C248        C  0.31366569  0.45331927  0.26348312    -0.21300
C249        C  0.26389608  0.25568414  0.21467329    -0.21300
C250        C  0.26413731  0.25578992  0.26514938    -0.21300
C251        C  0.26346161  0.38850983  0.09363820    -0.22300
C252        C  0.25262786  0.35527886  0.09487714    -0.22300
C253        C  0.26423004  0.38918475  0.38535459    -0.22300
C254        C  0.25359168  0.35579971  0.38469791    -0.22300
C255        C  0.28968887  0.42133574  0.15092559    -0.17700
C256        C  0.28999272  0.42201261  0.32717954    -0.17700
C257        C  0.25735929  0.30327689  0.32882963    -0.17700
C258        C  0.25662651  0.30295062  0.15095010    -0.17700
H259        H  0.32474519  0.47004026  0.19143989     0.15200
H260        H  0.32484991  0.47051011  0.28545928     0.15200
H261        H  0.26713149  0.23261140  0.19155895     0.15200
H262        H  0.26758075  0.23280645  0.28829289     0.15200
H263        H  0.26417749  0.40657907  0.06282269     0.13500
H264        H  0.24374776  0.34238082  0.06460754     0.13500
H265        H  0.26502368  0.40741738  0.41599086     0.13500
H266        H  0.24493614  0.34296677  0.41528715     0.13500
H267        H  0.27002285  0.39925005  0.23936089     0.26800
H268        H  0.25017238  0.33829908  0.23990101     0.26800
N269        N  0.40109014  0.43168135  0.57303477    -0.26700
N270        N  0.39760483  0.46464733  0.58961228    -0.34500
C271        C  0.41811996  0.48305622  0.58735454     0.01700
C272        C  0.43527866  0.46193793  0.56493100     0.07700
C273        C  0.42386242  0.42905829  0.55779089    -0.05400
H274        H  0.41884733  0.51214075  0.59017797     0.08400
H275        H  0.43026052  0.40737447  0.53496390     0.09600
Cu276      Cu  0.36487329  0.49023206  0.58991394     0.44200
Cu277      Cu  0.37316496  0.39571702  0.55982320     0.42000
Cu278      Cu  0.31424250  0.43865364  0.57116087     0.43900
N279        N  0.33134715  0.51329196  0.58731294    -0.34100
N280        N  0.31201071  0.49330952  0.58348051    -0.28300
C281        C  0.29304555  0.51253035  0.59838221    -0.04400
C282        C  0.30080763  0.54649947  0.61191714     0.07800
C283        C  0.32518720  0.54618490  0.60324569     0.01600
H284        H  0.27568811  0.50101460  0.60579731     0.09300
H285        H  0.33788869  0.56582111  0.61652285     0.08300
N286        N  0.31980847  0.38445360  0.55919291    -0.35500
N287        N  0.34072382  0.36835647  0.55377999    -0.27700
C288        C  0.33690043  0.33326810  0.54326882    -0.02900
C289        C  0.31247369  0.32743442  0.54271103     0.05700
C290        C  0.30232309  0.36034622  0.55274637     0.03800
H291        H  0.35074468  0.31386314  0.53517495     0.08900
H292        H  0.28347962  0.36669859  0.55321756     0.07700
N293        N  0.40108120  0.43031868  0.90637339    -0.26700
N294        N  0.39772313  0.46324712  0.88954600    -0.34500
C295        C  0.41820405  0.48170874  0.89246070     0.01700
C296        C  0.43524058  0.46061002  0.91526433     0.07700
C297        C  0.42374794  0.42776356  0.92231375    -0.05400
H298        H  0.41895954  0.51078203  0.88947975     0.08400
H299        H  0.43000751  0.40611761  0.94535264     0.09600
Cu300      Cu  0.36497771  0.48871047  0.88746131     0.44200
Cu301      Cu  0.37301133  0.39434325  0.91889411     0.42000
Cu302      Cu  0.31422546  0.43815277  0.90857902     0.43900
N303        N  0.33159789  0.51222168  0.88978616    -0.34100
N304        N  0.31215751  0.49257960  0.89448848    -0.28300
C305        C  0.29323821  0.51189607  0.87953992    -0.04400
C306        C  0.30116195  0.54560303  0.86520906     0.07800
C307        C  0.32557639  0.54501819  0.87333013     0.01600
H308        H  0.27573904  0.50060747  0.87292021     0.09300
H309        H  0.33833532  0.56439106  0.85958484     0.08300
N310        N  0.31953501  0.38392961  0.92076121    -0.35500
N311        N  0.34036328  0.36746506  0.92557128    -0.27700
C312        C  0.33631705  0.33240972  0.93600358    -0.02900
C313        C  0.31184356  0.32700176  0.93712800     0.05700
C314        C  0.30190118  0.36011901  0.92753446     0.03800
H315        H  0.35005117  0.31272428  0.94361508     0.08900
H316        H  0.28310455  0.36679189  0.92744293     0.07700
N317        N  0.28544196  0.57505320  0.73883135    -0.36000
N318        N  0.27018275  0.62564864  0.66644503    -0.56600
N319        N  0.25559036  0.67790877  0.73959496    -0.36000
N320        N  0.27061383  0.62524286  0.81200286    -0.56600
C321        C  0.29624799  0.56117807  0.69918978     0.27600
C322        C  0.29631102  0.56079974  0.77814712     0.27600
C323        C  0.25846336  0.69889475  0.69959999     0.27600
C324        C  0.25886751  0.69873194  0.77961300     0.27600
C325        C  0.27403637  0.59649025  0.63812178     0.36200
C326        C  0.25749856  0.64924516  0.63964820     0.36200
C327        C  0.27441201  0.59586410  0.83994110     0.36200
C328        C  0.25824094  0.64889067  0.83932628     0.36200
C329        C  0.31365044  0.53679819  0.71356678    -0.21300
C330        C  0.31367684  0.53653870  0.76322247    -0.21300
C331        C  0.26332320  0.73387183  0.71438889    -0.21300
C332        C  0.26358971  0.73376656  0.76486620    -0.21300
C333        C  0.26337547  0.60102452  0.59329295    -0.22300
C334        C  0.25247211  0.63420034  0.59451608    -0.22300
C335        C  0.26401247  0.60032022  0.88504971    -0.22300
C336        C  0.25335641  0.63369021  0.88442350    -0.22300
C337        C  0.28960375  0.56828511  0.65064747    -0.17700
C338        C  0.28980157  0.56756486  0.82685690    -0.17700
C339        C  0.25704948  0.68621933  0.82856287    -0.17700
C340        C  0.25626824  0.68653205  0.65065160    -0.17700
H341        H  0.32485992  0.51993505  0.69117704     0.15200
H342        H  0.32490899  0.51944211  0.78523008     0.15200
H343        H  0.26644797  0.75697660  0.69127618     0.15200
H344        H  0.26694261  0.75678421  0.78800834     0.15200
H345        H  0.26414052  0.58295515  0.56247792     0.13500
H346        H  0.24357022  0.64704498  0.56423512     0.13500
H347        H  0.26480999  0.58206978  0.91566224     0.13500
H348        H  0.24467789  0.64649259  0.91501173     0.13500
H349        H  0.26987575  0.59029623  0.73903348     0.26800
H350        H  0.24996948  0.65112573  0.73961070     0.26800
C351        C  0.55147522  0.51413762  0.02571197    -0.10200
C352        C  0.56342437  0.49673278  0.98811488    -0.04100
C353        C  0.55143903  0.47886063  0.95093326    -0.10200
C354        C  0.52629882  0.47808251  0.95094763     0.10700
C355        C  0.51369808  0.49573475  0.98903447    -0.02000
C356        C  0.52633170  0.51388774  0.02665092     0.10500
C357        C  0.51354656  0.53091677  0.06402734    -0.12000
C358        C  0.48865850  0.53041626  0.06449892    -0.12000
C359        C  0.47584128  0.51286365  0.02761257     0.10500
C360        C  0.48844231  0.49521640  0.98952114    -0.02000
C361        C  0.51348195  0.46051177  0.91407576    -0.12100
C362        C  0.48859392  0.46002831  0.91453267    -0.12100
C363        C  0.47580890  0.47707893  0.95189142     0.10700
C364        C  0.45066568  0.47686941  0.95279663    -0.10200
C365        C  0.43871580  0.49427411  0.99039465    -0.04100
C366        C  0.45070042  0.51210822  0.02760827    -0.10200
H367        H  0.52274776  0.54479810  0.09310725     0.08000
H368        H  0.47948115  0.54392369  0.09393327     0.08000
H369        H  0.52265931  0.44699189  0.88465165     0.08200
H370        H  0.47939271  0.44614810  0.88545158     0.08200
H371        H  0.58280876  0.49703744  0.98785879     0.04600
H372        H  0.41933124  0.49399310  0.99063238     0.04600
N373        N  0.90106653  0.93113465  0.57373975    -0.26700
N374        N  0.89785013  0.96406206  0.59069696    -0.34500
C375        C  0.91841894  0.98231370  0.58785302     0.01700
C376        C  0.93535898  0.96110952  0.56488646     0.07700
C377        C  0.92372055  0.92838611  0.55776263    -0.05400
H378        H  0.91929458  0.01137516  0.59091194     0.08400
H379        H  0.92986941  0.90673916  0.53459237     0.09600
Cu380      Cu  0.86520598  0.98990305  0.59266488     0.44200
Cu381      Cu  0.87284082  0.89549038  0.56096473     0.42000
Cu382      Cu  0.81428419  0.94003631  0.57015706     0.43900
N383        N  0.83193301  0.01382690  0.58979633    -0.34100
N384        N  0.81242078  0.99443006  0.58451195    -0.28300
C385        C  0.79351127  0.01389436  0.59918235    -0.04400
C386        C  0.80151310  0.04744844  0.61396730     0.07800
C387        C  0.82597152  0.04663031  0.60634422     0.01600
H388        H  0.77592682  0.00276423  0.60534553     0.09300
H389        H  0.83874626  0.06580610  0.62052104     0.08300
N390        N  0.81933375  0.88576456  0.55801727    -0.35500
N391        N  0.84008670  0.86901202  0.55368536    -0.27700
C392        C  0.83588636  0.83398073  0.54335415    -0.02900
C393        C  0.81138894  0.82890363  0.54178648     0.05700
C394        C  0.80159327  0.86217659  0.55101485     0.03800
H395        H  0.84953956  0.81407438  0.53618198     0.08900
H396        H  0.78283497  0.86908666  0.55081490     0.07700
N397        N  0.90098936  0.93273361  0.90525412    -0.26700
N398        N  0.89762814  0.96571376  0.88862450    -0.34500
C399        C  0.91822052  0.98393934  0.89083324     0.01700
C400        C  0.93529748  0.96270868  0.91333416     0.07700
C401        C  0.92375266  0.92993008  0.92048703    -0.05400
H402        H  0.91905521  0.01301582  0.88798468     0.08400
H403        H  0.93005645  0.90822447  0.94337544     0.09600
Cu404      Cu  0.86498212  0.99161042  0.88845600     0.44200
Cu405      Cu  0.87293454  0.89701919  0.91871743     0.42000
Cu406      Cu  0.81419627  0.94056862  0.90859362     0.43900
N407        N  0.83154283  0.01498326  0.89165149    -0.34100
N408        N  0.81214273  0.99519488  0.89597604    -0.28300
C409        C  0.79319022  0.01452456  0.88127303    -0.04400
C410        C  0.80102442  0.04836879  0.86735534     0.07800
C411        C  0.82543853  0.04787475  0.87563306     0.01600
H412        H  0.77576276  0.00312745  0.87422029     0.09300
H413        H  0.83815959  0.06734220  0.86198373     0.08300
N414        N  0.81953632  0.88630810  0.92042481    -0.35500
N415        N  0.84039629  0.86996022  0.92530673    -0.27700
C416        C  0.83644628  0.83487161  0.93563998    -0.02900
C417        C  0.81199198  0.82931068  0.93664615     0.05700
C418        C  0.80196131  0.86237750  0.92706692     0.03800
H419        H  0.85023098  0.81526845  0.94325914     0.08900
H420        H  0.78314687  0.86893302  0.92694028     0.07700
N421        N  0.78562153  0.07677261  0.74037367    -0.36000
N422        N  0.77043220  0.12747469  0.81272687    -0.56600
N423        N  0.75598004  0.17979740  0.73956036    -0.36000
N424        N  0.77092428  0.12704633  0.66718834    -0.56600
C425        C  0.79636393  0.06282314  0.78003316     0.27600
C426        C  0.79646532  0.06243488  0.70106956     0.27600
C427        C  0.75889669  0.20076911  0.77955658     0.27600
C428        C  0.75934072  0.20058955  0.69954620     0.27600
C429        C  0.77422416  0.09830911  0.84106383     0.36200
C430        C  0.75776434  0.15112669  0.83948525     0.36200
C431        C  0.77469954  0.09765737  0.63924622     0.36200
C432        C  0.75859658  0.15073743  0.63985789     0.36200
C433        C  0.81366177  0.03826287  0.76567282    -0.21300
C434        C  0.81370920  0.03799232  0.71602677    -0.21300
C435        C  0.76388021  0.23570688  0.76477355    -0.21300
C436        C  0.76417261  0.23559103  0.71429599    -0.21300
C437        C  0.76353079  0.10288925  0.88586057    -0.22300
C438        C  0.75267526  0.13610430  0.88460083    -0.22300
C439        C  0.76432105  0.10214717  0.59413097    -0.22300
C440        C  0.75370124  0.13554570  0.59476007    -0.22300
C441        C  0.78977018  0.07005694  0.82858322    -0.17700
C442        C  0.79006115  0.06932221  0.65233066    -0.17700
C443        C  0.75748847  0.18807963  0.65059955    -0.17700
C444        C  0.75663231  0.18842627  0.82849704    -0.17700
H445        H  0.82478131  0.02127142  0.78805687     0.15200
H446        H  0.82486842  0.02075375  0.69405933     0.15200
H447        H  0.76706636  0.25879250  0.78789029     0.15200
H448        H  0.76760854  0.25858029  0.69115646     0.15200
H449        H  0.76424154  0.08482122  0.91667735     0.13500
H450        H  0.74377148  0.14899096  0.91485629     0.13500
H451        H  0.76511137  0.08390024  0.56350921     0.13500
H452        H  0.74505713  0.14837642  0.56416123     0.13500
H453        H  0.77012441  0.09217075  0.74015063     0.26800
H454        H  0.75027433  0.15305462  0.73953910     0.26800
N455        N  0.90103559  0.06091975  0.07182961    -0.26700
N456        N  0.89768569  0.02803074  0.08880560    -0.34500
C457        C  0.91817876  0.00958835  0.08599943     0.01700
C458        C  0.93521448  0.03064588  0.06310753     0.07700
C459        C  0.92370632  0.06346002  0.05589260    -0.05400
H460        H  0.91895001  0.98052492  0.08913068     0.08400
H461        H  0.92996606  0.08506198  0.03277510     0.09600
Cu462      Cu  0.86494048  0.00254362  0.09107595     0.44200
Cu463      Cu  0.87296557  0.09687785  0.05929143     0.42000
Cu464      Cu  0.81419528  0.05310065  0.07014925     0.43900
N465        N  0.83154022  0.97905368  0.08907993    -0.34100
N466        N  0.81210662  0.99870365  0.08432858    -0.28300
C467        C  0.79317742  0.97943981  0.09935299    -0.04400
C468        C  0.80108517  0.94575674  0.11379813     0.07800
C469        C  0.82550333  0.94630142  0.10568372     0.01600
H470        H  0.77568135  0.99075739  0.10593051     0.09300
H471        H  0.83825205  0.92692917  0.11946196     0.08300
N472        N  0.81949259  0.10734199  0.05819022    -0.35500
N473        N  0.84031283  0.12379383  0.05316901    -0.27700
C474        C  0.83625215  0.15887655  0.04295183    -0.02900
C475        C  0.81177934  0.16431608  0.04219030     0.05700
C476        C  0.80184965  0.13118847  0.05177418     0.03800
H477        H  0.84997125  0.17855603  0.03519517     0.08900
H478        H  0.78305162  0.12452818  0.05204212     0.07700
N479        N  0.90106085  0.05912269  0.40680407    -0.26700
N480        N  0.89754777  0.02613590  0.39031882    -0.34500
C481        C  0.91804900  0.00769034  0.39262315     0.01700
C482        C  0.93523357  0.02881679  0.41494317     0.07700
C483        C  0.92383852  0.06172441  0.42201594    -0.05400
H484        H  0.91875987  0.97860298  0.38983898     0.08400
H485        H  0.93026280  0.08344335  0.44474682     0.09600
Cu486      Cu  0.86477681  0.00064082  0.38978324     0.44200
Cu487      Cu  0.87318445  0.09523556  0.41984971     0.42000
Cu488      Cu  0.81425208  0.05254235  0.40837492     0.43900
N489        N  0.83116702  0.97781713  0.39199702    -0.34100
N490        N  0.81188507  0.99792419  0.39582623    -0.28300
C491        C  0.79288003  0.97887028  0.38075525    -0.04400
C492        C  0.80055517  0.94487838  0.36712127     0.07800
C493        C  0.82492685  0.94500845  0.37587833     0.01600
H494        H  0.77556302  0.99051774  0.37333140     0.09300
H495        H  0.83758331  0.92530331  0.36259931     0.08300
N496        N  0.81985980  0.10674948  0.42025130    -0.35500
N497        N  0.84079190  0.12277626  0.42573500    -0.27700
C498        C  0.83700609  0.15788845  0.43618378    -0.02900
C499        C  0.81258444  0.16381690  0.43660892     0.05700
C500        C  0.80240165  0.13092591  0.42656987     0.03800
H501        H  0.85086855  0.17724501  0.44434736     0.08900
H502        H  0.78355010  0.12463173  0.42604503     0.07700
N503        N  0.78520795  0.91643104  0.24014957    -0.36000
N504        N  0.77039158  0.86621778  0.16694680    -0.56600
N505        N  0.75532746  0.81357870  0.23929666    -0.36000
N506        N  0.76987452  0.86587071  0.31246064    -0.56600
C507        C  0.79614686  0.93061007  0.20086000     0.27600
C508        C  0.79599517  0.93028867  0.27981847     0.27600
C509        C  0.75860470  0.79276299  0.19927118     0.27600
C510        C  0.75825724  0.79260077  0.27927737     0.27600
C511        C  0.77424265  0.89559307  0.13902856     0.36200
C512        C  0.75800176  0.84260928  0.13959263     0.36200
C513        C  0.77371241  0.89501348  0.34081519     0.36200
C514        C  0.75721249  0.84223489  0.33923882     0.36200
C515        C  0.81353710  0.95481566  0.21582414    -0.21300
C516        C  0.81345323  0.95459325  0.26548584    -0.21300
C517        C  0.76338392  0.75774340  0.21399622    -0.21300
C518        C  0.76316082  0.75764062  0.26447160    -0.21300
C519        C  0.76385514  0.89117801  0.09390587    -0.22300
C520        C  0.75315709  0.85783656  0.09449929    -0.22300
C521        C  0.76304610  0.89044095  0.38563959    -0.22300
C522        C  0.75216747  0.85724638  0.38438580    -0.22300
C523        C  0.78967488  0.92383522  0.15213603    -0.17700
C524        C  0.78930886  0.92319567  0.32834386    -0.17700
C525        C  0.75606129  0.80494698  0.32823028    -0.17700
C526        C  0.75676362  0.80527692  0.15033406    -0.17700
H527        H  0.82482629  0.97184370  0.19383301     0.15200
H528        H  0.82467001  0.97141269  0.28791542     0.15200
H529        H  0.76675699  0.73473824  0.19084133     0.15200
H530        H  0.76633668  0.73454632  0.28757259     0.15200
H531        H  0.76469112  0.90943180  0.06330087     0.13500
H532        H  0.74448096  0.84506489  0.06389076     0.13500
H533        H  0.76380944  0.90848296  0.41648329     0.13500
H534        H  0.74328719  0.84435837  0.41466563     0.13500
H535        H  0.76961889  0.90124112  0.23989765     0.26800
H536        H  0.74967455  0.84034765  0.23929743     0.26800
C537        C  0.95074304  0.97731857  0.52721884    -0.10200
C538        C  0.93874076  0.99489192  0.48984606    -0.04100
C539        C  0.95067081  0.01264684  0.45249538    -0.10200
C540        C  0.97581065  0.01317364  0.45210697     0.10700
C541        C  0.98847064  0.99535087  0.48994793    -0.02000
C542        C  0.97589306  0.97727201  0.52772138     0.10500
C543        C  0.98874156  0.96002598  0.56480935    -0.12000
C544        C  0.01363308  0.96028674  0.56488293    -0.12000
C545        C  0.02638961  0.97781475  0.52787956     0.10500
C546        C  0.01372939  0.99563086  0.49003353    -0.02000
C547        C  0.98856732  0.03066599  0.41507385    -0.12100
C548        C  0.01345837  0.03092891  0.41514921    -0.12100
C549        C  0.02630658  0.01371954  0.45226756     0.10700
C550        C  0.05145607  0.01372987  0.45281460    -0.10200
C551        C  0.06345845  0.99619128  0.49021356    -0.04100
C552        C  0.05152916  0.97839563  0.52753390    -0.10200
H553        H  0.97958705  0.94617686  0.59398085     0.08000
H554        H  0.02286108  0.94663077  0.59411738     0.08000
H555        H  0.97933971  0.04431121  0.38582986     0.08200
H556        H  0.02261265  0.04476913  0.38596967     0.08200
H557        H  0.91935489  0.99478296  0.48987132     0.04600
H558        H  0.08284422  0.99633864  0.49021220     0.04600
N559        N  0.10116643  0.93196021  0.57306555    -0.26700
N560        N  0.10467444  0.96494301  0.58956424    -0.34500
C561        C  0.08415721  0.98335571  0.58737762     0.01700
C562        C  0.06696796  0.96222155  0.56508093     0.07700
C563        C  0.07837558  0.92933070  0.55794792    -0.05400
H564        H  0.08343361  0.01244192  0.59017366     0.08400
H565        H  0.07194741  0.90761936  0.53520832     0.09600
Cu566      Cu  0.13742709  0.99048935  0.58983294     0.44200
Cu567      Cu  0.12906117  0.89592166  0.55983545     0.42000
Cu568      Cu  0.18797679  0.93862787  0.57136199     0.43900
N569        N  0.17101512  0.01336669  0.58735596    -0.34100
N570        N  0.19030976  0.99327899  0.58362282    -0.28300
C571        C  0.20930399  0.01240687  0.59857268    -0.04400
C572        C  0.20160715  0.04642167  0.61204902     0.07800
C573        C  0.17723580  0.04623355  0.60328536     0.01600
H574        H  0.22662670  0.00080303  0.60606588     0.09300
H575        H  0.16456665  0.06594204  0.61650618     0.08300
N576        N  0.18238352  0.88445714  0.55923450    -0.35500
N577        N  0.16145497  0.86842546  0.55372425    -0.27700
C578        C  0.16524787  0.83334607  0.54309105    -0.02900
C579        C  0.18967144  0.82745117  0.54255653     0.05700
C580        C  0.19984824  0.86032034  0.55273689     0.03800
H581        H  0.15138801  0.81398902  0.53491108     0.08900
H582        H  0.21869770  0.86662675  0.55327563     0.07700
N583        N  0.10107969  0.93014080  0.90686224    -0.26700
N584        N  0.10443424  0.96302371  0.88987128    -0.34500
C585        C  0.08393240  0.98145166  0.89258231     0.01700
C586        C  0.06688718  0.96039963  0.91545688     0.07700
C587        C  0.07839686  0.92759269  0.92272368    -0.05400
H588        H  0.08315763  0.01051396  0.88943324     0.08400
H589        H  0.07212775  0.90600117  0.94584828     0.09600
Cu590      Cu  0.13717329  0.98853792  0.88777682     0.44200
Cu591      Cu  0.12915458  0.89422370  0.91955499     0.42000
Cu592      Cu  0.18792325  0.93806430  0.90870491     0.43900
N593        N  0.17054986  0.01210486  0.88992371    -0.34100
N594        N  0.18999679  0.99248261  0.89464107    -0.28300
C595        C  0.20891573  0.01180825  0.87970081    -0.04400
C596        C  0.20098758  0.04550450  0.86534406     0.07800
C597        C  0.17656630  0.04489803  0.87343291     0.01600
H598        H  0.22642233  0.00053268  0.87310789     0.09300
H599        H  0.16380545  0.06426408  0.85968573     0.08300
N600        N  0.18263284  0.88384487  0.92083126    -0.35500
N601        N  0.16181942  0.86737059  0.92584445    -0.27700
C602        C  0.16589562  0.83231041  0.93617734    -0.02900
C603        C  0.19037117  0.82691472  0.93703355     0.05700
C604        C  0.20028632  0.86003841  0.92737775     0.03800
H605        H  0.15218444  0.81261622  0.94392455     0.08900
H606        H  0.21908058  0.86672270  0.92711967     0.07700
N607        N  0.21687307  0.07491383  0.73902969    -0.36000
N608        N  0.23220606  0.12549425  0.66671445    -0.56600
N609        N  0.24672524  0.17778141  0.73988119    -0.36000
N610        N  0.23163767  0.12512385  0.81224551    -0.56600
C611        C  0.20609848  0.06106280  0.69934441     0.27600
C612        C  0.20591970  0.06072870  0.77830054     0.27600
C613        C  0.24382265  0.19877025  0.69989687     0.27600
C614        C  0.24345977  0.19859266  0.77991595     0.27600
C615        C  0.22840688  0.09632988  0.63838016     0.36200
C616        C  0.24487836  0.14912698  0.63995058     0.36200
C617        C  0.22779996  0.09573779  0.84015583     0.36200
C618        C  0.24403501  0.14872707  0.83959201     0.36200
C619        C  0.18863160  0.03676258  0.71364987    -0.21300
C620        C  0.18853080  0.03653307  0.76330673    -0.21300
C621        C  0.23895039  0.23373836  0.71471499    -0.21300
C622        C  0.23871978  0.23362669  0.76519522    -0.21300
C623        C  0.23910743  0.10088535  0.59358602    -0.22300
C624        C  0.24996604  0.13409462  0.59483666    -0.22300
C625        C  0.23819885  0.10014352  0.88526799    -0.22300
C626        C  0.24889217  0.13348892  0.88467491    -0.22300
C627        C  0.21281169  0.06814378  0.65083118    -0.17700
C628        C  0.21238180  0.06748138  0.82703360    -0.17700
C629        C  0.24528409  0.18606104  0.82885549    -0.17700
C630        C  0.24601744  0.18641947  0.65093524    -0.17700
H631        H  0.17742108  0.01994141  0.69121297     0.15200
H632        H  0.17723255  0.01950083  0.78527072     0.15200
H633        H  0.23580343  0.25684516  0.69162002     0.15200
H634        H  0.23536909  0.25663646  0.78835569     0.15200
H635        H  0.23837917  0.08282231  0.56276111     0.13500
H636        H  0.25886689  0.14697267  0.56457378     0.13500
H637        H  0.23737899  0.08187774  0.91586165     0.13500
H638        H  0.25758140  0.14625110  0.91527551     0.13500
H639        H  0.23246657  0.09009530  0.73930007     0.26800
H640        H  0.25235418  0.15100158  0.73988363     0.26800
N641        N  0.10111251  0.05992959  0.40612998    -0.26700
N642        N  0.10433008  0.02698791  0.38922015    -0.34500
C643        C  0.08377326  0.00871618  0.39216642     0.01700
C644        C  0.06683920  0.02992595  0.41513509     0.07700
C645        C  0.07846977  0.06266589  0.42218371    -0.05400
H646        H  0.08290599  0.97965227  0.38914265     0.08400
H647        H  0.07232341  0.08433507  0.44531892     0.09600
Cu648      Cu  0.13697909  0.00116803  0.38710370     0.44200
Cu649      Cu  0.12932878  0.09565049  0.41864665     0.42000
Cu650      Cu  0.18789187  0.05112826  0.40938735     0.43900
N651        N  0.17027747  0.97731268  0.38971858    -0.34100
N652        N  0.18977875  0.99674363  0.39495120    -0.28300
C653        C  0.20868806  0.97733584  0.38014350    -0.04400
C654        C  0.20069803  0.94378340  0.36532618     0.07800
C655        C  0.17624823  0.94454273  0.37306284     0.01600
H656        H  0.22625671  0.98850704  0.37393002     0.09300
H657        H  0.16347405  0.92535138  0.35892244     0.08300
N658        N  0.18284122  0.10543875  0.42127036    -0.35500
N659        N  0.16208597  0.12218026  0.42563445    -0.27700
C660        C  0.16628409  0.15723616  0.43581921    -0.02900
C661        C  0.19078184  0.16234816  0.43724513     0.05700
C662        C  0.20057972  0.12906252  0.42809233     0.03800
H663        H  0.15263002  0.17713262  0.44303427     0.08900
H664        H  0.21934011  0.12216427  0.42827540     0.07700
N665        N  0.10111247  0.05838705  0.07334380    -0.26700
N666        N  0.10444273  0.02541952  0.09004979    -0.34500
C667        C  0.08384853  0.00720415  0.08775749     0.01700
C668        C  0.06680265  0.02842929  0.06515637     0.07700
C669        C  0.07836900  0.06118907  0.05798390    -0.05400
H670        H  0.08299808  0.97813233  0.09066703     0.08400
H671        H  0.07209559  0.08288274  0.03504037     0.09600
Cu672      Cu  0.13708108  0.99949770  0.09052300     0.44200
Cu673      Cu  0.12918560  0.09410873  0.06003770     0.42000
Cu674      Cu  0.18789277  0.05061181  0.07043985     0.43900
N675        N  0.17054550  0.97618855  0.08751610    -0.34100
N676        N  0.18993680  0.99599849  0.08317884    -0.28300
C677        C  0.20889479  0.97671307  0.09795341    -0.04400
C678        C  0.20107590  0.94287552  0.11192421     0.07800
C679        C  0.17666424  0.94332499  0.10361911     0.01600
H680        H  0.22631484  0.98813970  0.10499527     0.09300
H681        H  0.16395117  0.92384351  0.11726248     0.08300
N682        N  0.18257940  0.10489075  0.05867451    -0.35500
N683        N  0.16172040  0.12122251  0.05369205    -0.27700
C684        C  0.16567114  0.15632113  0.04342055    -0.02900
C685        C  0.19012523  0.16191126  0.04256362     0.05700
C686        C  0.20015510  0.12884407  0.05216378     0.03800
H687        H  0.15188869  0.17591026  0.03572002     0.08900
H688        H  0.21897153  0.12230193  0.05236685     0.07700
N689        N  0.21653938  0.91449277  0.23887829    -0.36000
N690        N  0.23178173  0.86385270  0.16650051    -0.56600
N691        N  0.24629997  0.81154200  0.23961215    -0.36000
N692        N  0.23133259  0.86426244  0.31200492    -0.56600
C693        C  0.20575608  0.92839912  0.19923867     0.27600
C694        C  0.20569163  0.92878979  0.27820486     0.27600
C695        C  0.24336004  0.79058363  0.19961319     0.27600
C696        C  0.24292641  0.79074504  0.27961471     0.27600
C697        C  0.22794320  0.89301003  0.13817712     0.36200
C698        C  0.24446461  0.84023589  0.13971664     0.36200
C699        C  0.22754292  0.89363637  0.33996649     0.36200
C700        C  0.24368130  0.84058084  0.33931011     0.36200
C701        C  0.18841979  0.95288704  0.21363244    -0.21300
C702        C  0.18839574  0.95315968  0.26328318    -0.21300
C703        C  0.23834826  0.75565190  0.21438018    -0.21300
C704        C  0.23806195  0.75575658  0.26485555    -0.21300
C705        C  0.23862772  0.88846484  0.09336400    -0.22300
C706        C  0.24952219  0.85527703  0.09459837    -0.22300
C707        C  0.23793836  0.88915030  0.38506615    -0.22300
C708        C  0.24857876  0.85576622  0.38440998    -0.22300
C709        C  0.21235458  0.92120388  0.15068041    -0.17700
C710        C  0.21214208  0.92193446  0.32692655    -0.17700
C711        C  0.24478899  0.80324116  0.32855977    -0.17700
C712        C  0.24561765  0.80293612  0.15068261    -0.17700
H713        H  0.17726056  0.96983227  0.19126549     0.15200
H714        H  0.17721728  0.97035172  0.28527759     0.15200
H715        H  0.23513283  0.73258081  0.19125428     0.15200
H716        H  0.23460346  0.73277101  0.28798749     0.15200
H717        H  0.23788068  0.90653207  0.06255003     0.13500
H718        H  0.25842369  0.84241182  0.06432399     0.13500
H719        H  0.23713728  0.90738263  0.41570248     0.13500
H720        H  0.25723081  0.84293297  0.41499731     0.13500
H721        H  0.23206733  0.89916501  0.23906976     0.26800
H722        H  0.25202162  0.83827796  0.23964113     0.26800
C723        C  0.95064775  0.01429522  0.02565085    -0.10200
C724        C  0.93870010  0.99679646  0.98814404    -0.04100
C725        C  0.95068212  0.97883233  0.95103356    -0.10200
C726        C  0.97582142  0.97800624  0.95107111     0.10700
C727        C  0.98842290  0.99578384  0.98904416    -0.02000
C728        C  0.97579050  0.01407223  0.02655317     0.10500
C729        C  0.98857570  0.03126072  0.06378703    -0.12000
C730        C  0.01346386  0.03077281  0.06423332    -0.12000
C731        C  0.02627939  0.01305750  0.02747733     0.10500
C732        C  0.01367788  0.99525924  0.98952173    -0.02000
C733        C  0.98863665  0.96026739  0.91433505    -0.12100
C734        C  0.01352481  0.95975947  0.91479859    -0.12100
C735        C  0.02631037  0.97696569  0.95201763     0.10700
C736        C  0.05145359  0.97676724  0.95290082    -0.10200
C737        C  0.06340162  0.99430901  0.99037480    -0.04100
C738        C  0.05141928  0.01228081  0.02747501    -0.10200
H739        H  0.97937429  0.04525967  0.09277071     0.08000
H740        H  0.02264274  0.04440904  0.09355158     0.08000
H741        H  0.97945760  0.94663478  0.88501399     0.08200
H742        H  0.02272618  0.94574879  0.88582521     0.08200
H743        H  0.91931562  0.99710484  0.98790036     0.04600
H744        H  0.08278630  0.99402093  0.99061010     0.04600
N745        N  0.72769890  0.71329653  0.52339921    -0.36000
N746        N  0.73315729  0.73856851  0.42238712    -0.56600
N747        N  0.77297437  0.77979331  0.45506086    -0.36000
N748        N  0.76747089  0.75464581  0.55609443    -0.56600
C749        C  0.70782979  0.69922627  0.50282558     0.27600
C750        C  0.72587760  0.70822980  0.57214715     0.27600
C751        C  0.77485173  0.78469981  0.40629553     0.27600
C752        C  0.79286884  0.79379939  0.47560314     0.27600
C753        C  0.71399687  0.71720208  0.41599946     0.36200
C754        C  0.73692108  0.75606716  0.38000594     0.36200
C755        C  0.76376047  0.73705681  0.59843051     0.36200
C756        C  0.78665717  0.77597733  0.56245351     0.36200
C757        C  0.69310117  0.68547357  0.53876533    -0.21300
C758        C  0.70428525  0.69158429  0.58239079    -0.21300
C759        C  0.79649246  0.80119170  0.39602469    -0.21300
C760        C  0.80766037  0.80736143  0.43964526    -0.21300
C761        C  0.70553101  0.72075225  0.36895029    -0.22300
C762        C  0.71967405  0.74619178  0.34650805    -0.22300
C763        C  0.78105761  0.74687554  0.63186039    -0.22300
C764        C  0.79516964  0.77235580  0.60944699    -0.22300
C765        C  0.70337708  0.69568258  0.45238768    -0.17700
C766        C  0.74443951  0.71329717  0.60700238    -0.17700
C767        C  0.79734752  0.79736620  0.52601349    -0.17700
C768        C  0.75629648  0.77970393  0.37142493    -0.17700
H769        H  0.67616374  0.67193514  0.53407922     0.15200
H770        H  0.69775082  0.68323021  0.61762422     0.15200
H771        H  0.80306872  0.80941130  0.36076615     0.15200
H772        H  0.82463348  0.82080333  0.44433659     0.15200
H773        H  0.69019722  0.70746115  0.35313158     0.13500
H774        H  0.71765287  0.75565174  0.30961279     0.13500
H775        H  0.78318265  0.73729021  0.66866776     0.13500
H776        H  0.81055242  0.78555303  0.62520947     0.13500
H777        H  0.74304108  0.72014809  0.50447588     0.26800
H778        H  0.75759896  0.77309722  0.47397997     0.26800
N779        N  0.22771346  0.77805719  0.45547564    -0.36000
N780        N  0.23322222  0.75281691  0.55649737    -0.56600
N781        N  0.27303516  0.71162935  0.52374333    -0.36000
N782        N  0.26748139  0.73668343  0.42271109    -0.56600
C783        C  0.20786777  0.79218657  0.47609462     0.27600
C784        C  0.22590890  0.78319512  0.40673648     0.27600
C785        C  0.27497322  0.70684398  0.57252312     0.27600
C786        C  0.29295612  0.69770546  0.50318398     0.27600
C787        C  0.21403502  0.77412797  0.56290306     0.36200
C788        C  0.23700874  0.73532031  0.59887188     0.36200
C789        C  0.26375994  0.75426023  0.38037555     0.36200
C790        C  0.28665589  0.71532973  0.41631534     0.36200
C791        C  0.19316658  0.80604211  0.44018849    -0.21300
C792        C  0.20434541  0.79994263  0.39654241    -0.21300
C793        C  0.29666697  0.69051513  0.58277276    -0.21300
C794        C  0.30781623  0.68432251  0.53913452    -0.21300
C795        C  0.20557489  0.77054147  0.60995996    -0.22300
C796        C  0.21975209  0.74513928  0.63238698    -0.22300
C797        C  0.28103973  0.74440683  0.34690959    -0.22300
C798        C  0.29514726  0.71891554  0.36929912    -0.22300
C799        C  0.20341190  0.79567603  0.52654953    -0.17700
C800        C  0.24446446  0.77807693  0.37185356    -0.17700
C801        C  0.29739107  0.69402413  0.45277558    -0.17700
C802        C  0.25642879  0.71176765  0.60743932    -0.17700
H803        H  0.17625175  0.81964241  0.44491351     0.15200
H804        H  0.19782587  0.80836592  0.36133142     0.15200
H805        H  0.30329188  0.68240893  0.61803703     0.15200
H806        H  0.32482252  0.67097699  0.53443303     0.15200
H807        H  0.19023164  0.78379821  0.62580376     0.13500
H808        H  0.21775473  0.73567752  0.66928847     0.13500
H809        H  0.28317015  0.75399387  0.31010450     0.13500
H810        H  0.31052761  0.70571543  0.35351987     0.13500
H811        H  0.24303678  0.77110062  0.47437339     0.26800
H812        H  0.25761883  0.71815743  0.50486542     0.26800
N813        N  0.27403247  0.71135059  0.95548804    -0.36000
N814        N  0.23424044  0.75264889  0.92279120    -0.56600
N815        N  0.22869930  0.77774693  0.02383559    -0.36000
N816        N  0.26853144  0.73653123  0.05652481    -0.56600
C817        C  0.27588299  0.70636962  0.90672854     0.27600
C818        C  0.29391746  0.69733786  0.97606412     0.27600
C819        C  0.20881780  0.79178091  0.00327977     0.27600
C820        C  0.22684056  0.78271975  0.07258791     0.27600
C821        C  0.23794936  0.73504551  0.88046666     0.36200
C822        C  0.21502364  0.77391507  0.91644864     0.36200
C823        C  0.28765367  0.71508665  0.06294756     0.36200
C824        C  0.26473073  0.75397669  0.09893902     0.36200
C825        C  0.29751598  0.68984332  0.89647720    -0.21300
C826        C  0.30869845  0.68372984  0.94011200    -0.21300
C827        C  0.19404634  0.80541240  0.03922630    -0.21300
C828        C  0.20521744  0.79926966  0.08284356    -0.21300
C829        C  0.22061323  0.74477468  0.84707065    -0.22300
C830        C  0.20648186  0.77022810  0.86948780    -0.22300
C831        C  0.29604938  0.71851708  0.11006517    -0.22300
C832        C  0.28191177  0.74397255  0.13250785    -0.22300
C833        C  0.25731269  0.71137615  0.87186754    -0.17700
C834        C  0.29833519  0.69367641  0.02650102    -0.17700
C835        C  0.24538662  0.77769545  0.10747056    -0.17700
C836        C  0.20434198  0.79532709  0.95286655    -0.17700
H837        H  0.30407545  0.68156202  0.86123024     0.15200
H838        H  0.32566008  0.67026030  0.94481496     0.15200
H839        H  0.17708442  0.81888284  0.03454428     0.15200
H840        H  0.19865193  0.80753642  0.11809185     0.15200
H841        H  0.21847506  0.73515526  0.81028020     0.13500
H842        H  0.19107132  0.78337094  0.85375647     0.13500
H843        H  0.31134576  0.70515714  0.12592533     0.13500
H844        H  0.28389611  0.75336500  0.16944511     0.13500
H845        H  0.25866042  0.71808434  0.97440193     0.26800
H846        H  0.24406350  0.77097828  0.00492163     0.26800
N847        N  0.72851022  0.71351902  0.95516230    -0.36000
N848        N  0.73401827  0.73869516  0.05619091    -0.56600
N849        N  0.77379420  0.78001486  0.02345480    -0.36000
N850        N  0.76831584  0.75478349  0.92242270    -0.56600
C851        C  0.70865437  0.69942700  0.97576586     0.27600
C852        C  0.72662644  0.70858842  0.90640239     0.27600
C853        C  0.77561264  0.78507047  0.07220114     0.27600
C854        C  0.79369870  0.79397713  0.00288764     0.27600
C855        C  0.71483866  0.71735427  0.06257645     0.36200
C856        C  0.73768610  0.75637796  0.09847221     0.36200
C857        C  0.76449082  0.73739364  0.87997852     0.36200
C858        C  0.78744531  0.77621375  0.91599969     0.36200
C859        C  0.69387356  0.68579668  0.93984612    -0.21300
C860        C  0.70501009  0.69200585  0.89619746    -0.21300
C861        C  0.79724472  0.80158911  0.08246169    -0.21300
C862        C  0.80846026  0.80762430  0.03883950    -0.21300
C863        C  0.70627749  0.72107805  0.10952443    -0.22300
C864        C  0.72035700  0.74662743  0.13188269    -0.22300
C865        C  0.78166266  0.74742099  0.84639135    -0.22300
C866        C  0.79582034  0.77283066  0.86885503    -0.22300
C867        C  0.70420016  0.69585813  0.02619285    -0.17700
C868        C  0.74514581  0.71368007  0.87145123    -0.17700
C869        C  0.79814451  0.79758849  0.95245280    -0.17700
C870        C  0.75702378  0.78010766  0.10703499    -0.17700
H871        H  0.67692396  0.67229638  0.94456638     0.15200
H872        H  0.69842771  0.68376256  0.86095691     0.15200
H873        H  0.80378483  0.80991191  0.11770120     0.15200
H874        H  0.82542884  0.82107645  0.03414537     0.15200
H875        H  0.69088608  0.70789582  0.12528258     0.13500
H876        H  0.71819779  0.75628724  0.16865113     0.13500
H877        H  0.78363660  0.73806556  0.80943459     0.13500
H878        H  0.81111488  0.78619468  0.85298403     0.13500
H879        H  0.74387601  0.72031260  0.97404814     0.26800
H880        H  0.75843103  0.77326203  0.00453034     0.26800
N881        N  0.27357277  0.27779795  0.02406281    -0.36000
N882        N  0.23376554  0.23652563  0.05678527    -0.56600
N883        N  0.22830233  0.21125883  0.95577301    -0.36000
N884        N  0.26808036  0.25256431  0.92304959    -0.56600
C885        C  0.27541877  0.28282058  0.07280607     0.27600
C886        C  0.29342192  0.29190908  0.00346595     0.27600
C887        C  0.20839827  0.19730627  0.97634641     0.27600
C888        C  0.22646218  0.20625897  0.90702141     0.27600
C889        C  0.23758181  0.25392356  0.09922782     0.36200
C890        C  0.21467779  0.21501363  0.06323908     0.36200
C891        C  0.28728484  0.27385646  0.91668215     0.36200
C892        C  0.26440727  0.23488796  0.88076468     0.36200
C893        C  0.29700893  0.29948180  0.08301623    -0.21300
C894        C  0.30816342  0.30564813  0.03937766    -0.21300
C895        C  0.19361430  0.18371719  0.94039303    -0.21300
C896        C  0.20481596  0.18978322  0.89676386    -0.21300
C897        C  0.22044344  0.24381857  0.13284437    -0.22300
C898        C  0.20632134  0.21835262  0.11040154    -0.22300
C899        C  0.29585740  0.27010299  0.86974831    -0.22300
C900        C  0.28175644  0.24459095  0.84737520    -0.22300
C901        C  0.25689121  0.27771301  0.10772846    -0.17700
C902        C  0.29791100  0.29538603  0.95304271    -0.17700
C903        C  0.24504504  0.21121335  0.87217392    -0.17700
C904        C  0.20397612  0.19364289  0.02678159    -0.17700
H905        H  0.30356260  0.30779720  0.11824809     0.15200
H906        H  0.32509950  0.31918703  0.03465299     0.15200
H907        H  0.17664048  0.17028169  0.94508620     0.15200
H908        H  0.19825997  0.18150159  0.86151926     0.15200
H909        H  0.21846866  0.25315950  0.16980757     0.13500
H910        H  0.19105523  0.20492902  0.12629468     0.13500
H911        H  0.31126173  0.28325706  0.85400069     0.13500
H912        H  0.28391269  0.23492919  0.81060694     0.13500
H913        H  0.25822944  0.27091489  0.00516025     0.26800
H914        H  0.24368014  0.21795709  0.97469169     0.26800
N915        N  0.72923500  0.27969704  0.45538060    -0.36000
N916        N  0.73477159  0.25458205  0.55639802    -0.56600
N917        N  0.77455330  0.21323844  0.52366471    -0.36000
N918        N  0.76907670  0.23853689  0.42266442    -0.56600
C919        C  0.70932368  0.29364365  0.47593637     0.27600
C920        C  0.72733328  0.28455771  0.40661653     0.27600
C921        C  0.77635983  0.20811795  0.57240466     0.27600
C922        C  0.79439872  0.19911436  0.50304792     0.27600
C923        C  0.71558676  0.27591501  0.56278385     0.36200
C924        C  0.73849602  0.23701600  0.59874131     0.36200
C925        C  0.76529334  0.25603600  0.38028977     0.36200
C926        C  0.78823773  0.21717274  0.41624027     0.36200
C927        C  0.69449707  0.30711825  0.43999014    -0.21300
C928        C  0.70566088  0.30095359  0.39635971    -0.21300
C929        C  0.79792724  0.19138586  0.58260481    -0.21300
C930        C  0.80910361  0.18527434  0.53895944    -0.21300
C931        C  0.70709077  0.27232075  0.60979473    -0.22300
C932        C  0.72120807  0.24685221  0.63219608    -0.22300
C933        C  0.78253132  0.24617024  0.34675808    -0.22300
C934        C  0.79668790  0.22073386  0.36917350    -0.22300
C935        C  0.70486390  0.29725191  0.52634410    -0.17700
C936        C  0.74588925  0.27962589  0.37172969    -0.17700
C937        C  0.79885133  0.19561007  0.45259360    -0.17700
C938        C  0.75780435  0.21323108  0.60728820    -0.17700
H939        H  0.67750443  0.32050301  0.44469321     0.15200
H940        H  0.69906172  0.30912158  0.36110152     0.15200
H941        H  0.80444827  0.18297603  0.61781985     0.15200
H942        H  0.82601947  0.17167773  0.53424110     0.15200
H943        H  0.69170766  0.28551532  0.62557102     0.13500
H944        H  0.71908048  0.23727373  0.66900597     0.13500
H945        H  0.78452612  0.25561779  0.30984895     0.13500
H946        H  0.81201156  0.20743498  0.35331522     0.13500
H947        H  0.74463243  0.27308940  0.47427777     0.26800
H948        H  0.75922609  0.22017478  0.50475875     0.26800
N949        N  0.27441581  0.27806650  0.45571134    -0.36000
N950        N  0.26894080  0.25277025  0.55673522    -0.56600
N951        N  0.22916105  0.21149966  0.52401764    -0.36000
N952        N  0.23466638  0.23668202  0.42298390    -0.56600
C953        C  0.29426797  0.29216632  0.47630750     0.27600
C954        C  0.27622429  0.28319203  0.40697520     0.27600
C955        C  0.22726289  0.20660981  0.57278572     0.27600
C956        C  0.20928028  0.19747472  0.50344307     0.27600
C957        C  0.28809971  0.27413912  0.56312765     0.36200
C958        C  0.26516832  0.23528520  0.59912610     0.36200
C959        C  0.23836908  0.25429150  0.38065957     0.36200
C960        C  0.21550601  0.21530103  0.41659488     0.36200
C961        C  0.30897895  0.30599490  0.44038825    -0.21300
C962        C  0.29779838  0.29990127  0.39675381    -0.21300
C963        C  0.20562263  0.19010739  0.58302165    -0.21300
C964        C  0.19447794  0.18391348  0.53938318    -0.21300
C965        C  0.29655376  0.27060441  0.61018796    -0.22300
C966        C  0.28240639  0.24517416  0.63263302    -0.22300
C967        C  0.22109131  0.24443488  0.34720693    -0.22300
C968        C  0.20700303  0.21891109  0.36959279    -0.22300
C969        C  0.29871998  0.29567081  0.52675140    -0.17700
C970        C  0.25766503  0.27810665  0.37211909    -0.17700
C971        C  0.20482018  0.19389357  0.45302396    -0.17700
C972        C  0.24579537  0.21164288  0.60770397    -0.17700
H973        H  0.32589995  0.31957696  0.44509870     0.15200
H974        H  0.30432059  0.30830911  0.36153435     0.15200
H975        H  0.19903063  0.18189959  0.61827271     0.15200
H976        H  0.17751052  0.17046016  0.53467320     0.15200
H977        H  0.31188100  0.28390518  0.62601803     0.13500
H978        H  0.28442114  0.23572655  0.66953514     0.13500
H979        H  0.21896114  0.25402588  0.31040383     0.13500
H980        H  0.19163771  0.20568161  0.35380879     0.13500
H981        H  0.25908419  0.27115023  0.47462884     0.26800
H982        H  0.24454186  0.21820274  0.50511741     0.26800
N983        N  0.72819134  0.27999919  0.02372552    -0.36000
N984        N  0.73369131  0.25479577  0.92267682    -0.56600
N985        N  0.77350491  0.21357018  0.95538033    -0.36000
N986        N  0.76796329  0.23867395  0.05642923    -0.56600
C987        C  0.70831577  0.29403047  0.00314133     0.27600
C988        C  0.72636045  0.28504322  0.07247479     0.27600
C989        C  0.77538507  0.20863144  0.90662477     0.27600
C990        C  0.79337299  0.19951377  0.97595657     0.27600
C991        C  0.71456210  0.27622529  0.91626294     0.36200
C992        C  0.73750287  0.23737258  0.88024931     0.36200
C993        C  0.76426594  0.25628788  0.09875045     0.36200
C994        C  0.78714967  0.21734800  0.06279156     0.36200
C995        C  0.69355710  0.30771321  0.03908114    -0.21300
C996        C  0.70474494  0.30162654  0.08271636    -0.21300
C997        C  0.79700957  0.19208093  0.89639001    -0.21300
C998        C  0.80815718  0.18589874  0.94002070    -0.21300
C999        C  0.70617255  0.27280694  0.86913865    -0.22300
C1000       C  0.72032293  0.24737656  0.84668021    -0.22300
C1001       C  0.78158124  0.24650501  0.13216320    -0.22300
C1002       C  0.79568265  0.22100592  0.10976225    -0.22300
C1003       C  0.70388800  0.29764921  0.95270278    -0.17700
C1004       C  0.74493056  0.28001485  0.10733059    -0.17700
C1005       C  0.79782438  0.19592738  0.02637329    -0.17700
C1006       C  0.75685386  0.21366954  0.87171296    -0.17700
H1007       H  0.67660835  0.32121830  0.03436489     0.15200
H1008       H  0.69820067  0.30996005  0.11795230     0.15200
H1009       H  0.80358812  0.18383242  0.86114437     0.15200
H1010       H  0.82511245  0.17241295  0.94471521     0.15200
H1011       H  0.69087740  0.28616899  0.85327668     0.13500
H1012       H  0.71834812  0.23800171  0.80973283     0.13500
H1013       H  0.78372697  0.25612013  0.16895333     0.13500
H1014       H  0.81107303  0.20781943  0.12550860     0.13500
H1015       H  0.74355087  0.27320794  0.00480689     0.26800
H1016       H  0.75813215  0.22032212  0.97428119     0.26800
loop_ 
_geom_bond_atom_site_label_1 
_geom_bond_atom_site_label_2 
_geom_bond_distance 
_geom_bond_site_symmetry_2 
_ccdc_geom_bond_type 
N1            N2   1.320       .  A
N1            C5   1.348       .  A
N1           Cu9   2.092       .  S
N2            C3   1.339       .  A
N2           Cu8   2.066       .  S
C3            C4   1.386       .  A
C3            H6   1.083       .  S
C4            C5   1.392       .  A
C4          C167   1.477       .  S
C5            H7   1.082       .  S
Cu8          N11   2.067       .  S
Cu9          N19   2.092       .  S
Cu10         N12   2.059       .  S
Cu10         N18   2.061       .  S
N11          N12   1.317       .  A
N11          C15   1.342       .  A
N12          C13   1.345       .  A
C13          C14   1.385       .  A
C13          H16   1.082       .  S
C14          C15   1.387       .  A
C14          C70   1.479       .  S
C15          H17   1.082       .  S
N18          N19   1.324       .  A
N18          C22   1.339       .  A
N19          C20   1.351       .  A
C20          C21   1.386       .  A
C20          H23   1.082       .  S
C21          C22   1.375       .  A
C21         C935   1.476       .  S
C22          H24   1.082       .  S
N25          N26   1.320       .  A
N25          C29   1.347       .  A
N25         Cu33   2.090       .  S
N26          C27   1.339       .  A
N26         Cu32   2.066       .  S
C27          C28   1.386       .  A
C27          H30   1.083       .  S
C28          C29   1.392       .  A
C28         C353   1.476       .  S
C29          H31   1.082       .  S
Cu32         N35   2.066       .  S
Cu33         N43   2.090       .  S
Cu34         N36   2.060       .  S
Cu34         N42   2.062       .  S
N35          N36   1.317       .  A
N35          C39   1.342       .  A
N36          C37   1.344       .  A
C37          C38   1.384       .  A
C37          H40   1.082       .  S
C38          C39   1.387       .  A
C38          C69   1.478       .  S
C39          H41   1.082       .  S
N42          N43   1.324       .  A
N42          C46   1.339       .  A
N43          C44   1.351       .  A
C44          C45   1.386       .  A
C44          H47   1.082       .  S
C45          C46   1.375       .  A
C45        C1003   1.476       .  S
C46          H48   1.082       .  S
N49          C54   1.350       .  A
N49          C53   1.350       .  A
N49          H81   1.040       .  S
N50          C57   1.351       .  A
N50          C58   1.348       .  A
N51          C56   1.358       .  A
N51          C55   1.359       .  A
N51          H82   1.043       .  S
N52          C59   1.351       .  A
N52          C60   1.348       .  A
C53          C61   1.388       .  A
C53          C69   1.413       .  A
C54          C70   1.413       .  A
C54          C62   1.388       .  A
C55          C63   1.387       .  A
C55          C72   1.429       .  A
C56          C71   1.429       .  A
C56          C64   1.387       .  A
C57          C69   1.406       .  A
C57          C65   1.382       .  A
C58          C72   1.418       .  A
C58          C66   1.391       .  A
C59          C67   1.382       .  A
C59          C70   1.406       .  A
C60          C68   1.391       .  A
C60          C71   1.418       .  A
C61          C62   1.367       .  A
C61          H73   1.080       .  S
C62          H74   1.080       .  S
C63          C64   1.390       .  A
C63          H75   1.082       .  S
C64          H76   1.082       .  S
C65          C66   1.375       .  A
C65          H77   1.082       .  S
C66          H78   1.082       .  S
C67          C68   1.375       .  A
C67          H79   1.082       .  S
C68          H80   1.082       .  S
C71         C766   1.515       .  S
C72         C868   1.515       .  S
N83          N84   1.320       .  A
N83          C87   1.347       .  A
N83         Cu91   2.089       .  S
N84          C85   1.339       .  A
N84         Cu90   2.065       .  S
C85          C86   1.386       .  A
C85          H88   1.083       .  S
C86          C87   1.392       .  A
C86         C165   1.476       .  S
C87          H89   1.082       .  S
Cu90         N93   2.066       .  S
Cu91        N101   2.089       .  S
Cu92         N94   2.060       .  S
Cu92        N100   2.062       .  S
N93          N94   1.317       .  A
N93          C97   1.342       .  A
N94          C95   1.344       .  A
C95          C96   1.384       .  A
C95          H98   1.082       .  S
C96          C97   1.387       .  A
C96         C152   1.478       .  S
C97          H99   1.082       .  S
N100        N101   1.324       .  A
N100        C104   1.339       .  A
N101        C102   1.351       .  A
C102        C103   1.386       .  A
C102        H105   1.082       .  S
C103        C104   1.375       .  A
C103        C765   1.475       .  S
C104        H106   1.082       .  S
N107        N108   1.320       .  A
N107        C111   1.347       .  A
N107       Cu115   2.092       .  S
N108        C109   1.339       .  A
N108       Cu114   2.065       .  S
C109        C110   1.385       .  A
C109        H112   1.083       .  S
C110        C111   1.392       .  A
C110        C351   1.477       .  S
C111        H113   1.082       .  S
Cu114       N117   2.065       .  S
Cu115       N125   2.092       .  S
Cu116       N118   2.060       .  S
Cu116       N124   2.061       .  S
N117        N118   1.317       .  A
N117        C121   1.342       .  A
N118        C119   1.344       .  A
C119        C120   1.385       .  A
C119        H122   1.082       .  S
C120        C121   1.387       .  A
C120        C151   1.478       .  S
C121        H123   1.082       .  S
N124        N125   1.324       .  A
N124        C128   1.339       .  A
N125        C126   1.351       .  A
C126        C127   1.387       .  A
C126        H129   1.082       .  S
C127        C128   1.375       .  A
C127        C867   1.476       .  S
C128        H130   1.082       .  S
N131        C136   1.350       .  A
N131        C135   1.350       .  A
N131        H163   1.040       .  S
N132        C139   1.351       .  A
N132        C140   1.348       .  A
N133        C138   1.358       .  A
N133        C137   1.358       .  A
N133        H164   1.043       .  S
N134        C141   1.351       .  A
N134        C142   1.348       .  A
C135        C143   1.388       .  A
C135        C151   1.413       .  A
C136        C152   1.413       .  A
C136        C144   1.388       .  A
C137        C145   1.387       .  A
C137        C154   1.429       .  A
C138        C153   1.429       .  A
C138        C146   1.387       .  A
C139        C151   1.406       .  A
C139        C147   1.382       .  A
C140        C154   1.418       .  A
C140        C148   1.391       .  A
C141        C149   1.382       .  A
C141        C152   1.406       .  A
C142        C150   1.391       .  A
C142        C153   1.418       .  A
C143        C144   1.368       .  A
C143        H155   1.080       .  S
C144        H156   1.080       .  S
C145        C146   1.390       .  A
C145        H157   1.082       .  S
C146        H158   1.082       .  S
C147        C148   1.375       .  A
C147        H159   1.082       .  S
C148        H160   1.082       .  S
C149        C150   1.375       .  A
C149        H161   1.082       .  S
C150        H162   1.082       .  S
C153        C936   1.514       .  S
C154       C1004   1.515       .  S
C165        C166   1.393       .  A
C165        C170   1.409       .  A
C166        C167   1.392       .  A
C166        H185   1.086       .  S
C167        C168   1.409       .  A
C168        C169   1.424       .  A
C168        C175   1.404       .  A
C169        C170   1.424       .  A
C169        C174   1.416       .  A
C170        C171   1.404       .  A
C171        C172   1.395       .  A
C171        H181   1.083       .  S
C172        C173   1.404       .  A
C172        H182   1.083       .  S
C173        C174   1.424       .  A
C173        C180   1.410       .  A
C174        C177   1.424       .  A
C175        C176   1.395       .  A
C175        H183   1.083       .  S
C176        C177   1.404       .  A
C176        H184   1.083       .  S
C177        C178   1.409       .  A
C178        C179   1.393       .  A
C178        C272   1.476       .  S
C179        C180   1.392       .  A
C179        H186   1.086       .  S
C180        C190   1.477       .  S
N187        N188   1.320       .  A
N187        C191   1.348       .  A
N187       Cu195   2.092       .  S
N188        C189   1.339       .  A
N188       Cu194   2.066       .  S
C189        C190   1.386       .  A
C189        H192   1.083       .  S
C190        C191   1.392       .  A
C191        H193   1.082       .  S
Cu194       N197   2.067       .  S
Cu195       N205   2.092       .  S
Cu196       N198   2.059       .  S
Cu196       N204   2.061       .  S
N197        N198   1.317       .  A
N197        C201   1.342       .  A
N198        C199   1.345       .  A
C199        C200   1.385       .  A
C199        H202   1.082       .  S
C200        C201   1.387       .  A
C200        C256   1.479       .  S
C201        H203   1.082       .  S
N204        N205   1.324       .  A
N204        C208   1.339       .  A
N205        C206   1.351       .  A
C206        C207   1.387       .  A
C206        H209   1.082       .  S
C207        C208   1.375       .  A
C207        C801   1.476       .  S
C208        H210   1.082       .  S
N211        N212   1.320       .  A
N211        C215   1.347       .  A
N211       Cu219   2.090       .  S
N212        C213   1.339       .  A
N212       Cu218   2.066       .  S
C213        C214   1.386       .  A
C213        H216   1.083       .  S
C214        C215   1.392       .  A
C214        C366   1.476       .  S
C215        H217   1.082       .  S
Cu218       N221   2.066       .  S
Cu219       N229   2.090       .  S
Cu220       N222   2.060       .  S
Cu220       N228   2.062       .  S
N221        N222   1.317       .  A
N221        C225   1.342       .  A
N222        C223   1.344       .  A
C223        C224   1.384       .  A
C223        H226   1.082       .  S
C224        C225   1.387       .  A
C224        C255   1.478       .  S
C225        H227   1.082       .  S
N228        N229   1.324       .  A
N228        C232   1.339       .  A
N229        C230   1.351       .  A
C230        C231   1.386       .  A
C230        H233   1.082       .  S
C231        C232   1.375       .  A
C231        C834   1.476       .  S
C232        H234   1.082       .  S
N235        C240   1.351       .  A
N235        C239   1.350       .  A
N235        H267   1.040       .  S
N236        C243   1.351       .  A
N236        C244   1.348       .  A
N237        C242   1.358       .  A
N237        C241   1.358       .  A
N237        H268   1.043       .  S
N238        C245   1.351       .  A
N238        C246   1.348       .  A
C239        C247   1.388       .  A
C239        C255   1.413       .  A
C240        C256   1.413       .  A
C240        C248   1.388       .  A
C241        C249   1.387       .  A
C241        C258   1.429       .  A
C242        C257   1.429       .  A
C242        C250   1.387       .  A
C243        C255   1.406       .  A
C243        C251   1.382       .  A
C244        C258   1.418       .  A
C244        C252   1.391       .  A
C245        C253   1.382       .  A
C245        C256   1.406       .  A
C246        C254   1.391       .  A
C246        C257   1.418       .  A
C247        C248   1.367       .  A
C247        H259   1.080       .  S
C248        H260   1.080       .  S
C249        C250   1.390       .  A
C249        H261   1.082       .  S
C250        H262   1.082       .  S
C251        C252   1.375       .  A
C251        H263   1.082       .  S
C252        H264   1.082       .  S
C253        C254   1.375       .  A
C253        H265   1.082       .  S
C254        H266   1.082       .  S
C257        C970   1.515       .  S
C258        C901   1.515       .  S
N269        N270   1.320       .  A
N269        C273   1.347       .  A
N269       Cu277   2.089       .  S
N270        C271   1.339       .  A
N270       Cu276   2.065       .  S
C271        C272   1.386       .  A
C271        H274   1.083       .  S
C272        C273   1.392       .  A
C273        H275   1.082       .  S
Cu276       N279   2.066       .  S
Cu277       N287   2.089       .  S
Cu278       N280   2.060       .  S
Cu278       N286   2.062       .  S
N279        N280   1.317       .  A
N279        C283   1.342       .  A
N280        C281   1.344       .  A
C281        C282   1.384       .  A
C281        H284   1.082       .  S
C282        C283   1.387       .  A
C282        C337   1.478       .  S
C283        H285   1.082       .  S
N286        N287   1.324       .  A
N286        C290   1.339       .  A
N287        C288   1.351       .  A
C288        C289   1.386       .  A
C288        H291   1.082       .  S
C289        C290   1.375       .  A
C289        C969   1.475       .  S
C290        H292   1.082       .  S
N293        N294   1.320       .  A
N293        C297   1.347       .  A
N293       Cu301   2.092       .  S
N294        C295   1.339       .  A
N294       Cu300   2.065       .  S
C295        C296   1.385       .  A
C295        H298   1.083       .  S
C296        C297   1.392       .  A
C296        C364   1.476       .  S
C297        H299   1.082       .  S
Cu300       N303   2.065       .  S
Cu301       N311   2.092       .  S
Cu302       N304   2.060       .  S
Cu302       N310   2.061       .  S
N303        N304   1.317       .  A
N303        C307   1.342       .  A
N304        C305   1.344       .  A
C305        C306   1.385       .  A
C305        H308   1.082       .  S
C306        C307   1.387       .  A
C306        C338   1.478       .  S
C307        H309   1.082       .  S
N310        N311   1.324       .  A
N310        C314   1.339       .  A
N311        C312   1.351       .  A
C312        C313   1.387       .  A
C312        H315   1.082       .  S
C313        C314   1.375       .  A
C313        C902   1.476       .  S
C314        H316   1.082       .  S
N317        C322   1.350       .  A
N317        C321   1.350       .  A
N317        H349   1.040       .  S
N318        C325   1.351       .  A
N318        C326   1.348       .  A
N319        C324   1.358       .  A
N319        C323   1.359       .  A
N319        H350   1.043       .  S
N320        C327   1.351       .  A
N320        C328   1.348       .  A
C321        C329   1.388       .  A
C321        C337   1.413       .  A
C322        C338   1.413       .  A
C322        C330   1.388       .  A
C323        C331   1.387       .  A
C323        C340   1.429       .  A
C324        C339   1.430       .  A
C324        C332   1.387       .  A
C325        C337   1.406       .  A
C325        C333   1.382       .  A
C326        C340   1.418       .  A
C326        C334   1.391       .  A
C327        C335   1.382       .  A
C327        C338   1.406       .  A
C328        C336   1.391       .  A
C328        C339   1.418       .  A
C329        C330   1.368       .  A
C329        H341   1.080       .  S
C330        H342   1.080       .  S
C331        C332   1.390       .  A
C331        H343   1.082       .  S
C332        H344   1.082       .  S
C333        C334   1.375       .  A
C333        H345   1.082       .  S
C334        H346   1.082       .  S
C335        C336   1.375       .  A
C335        H347   1.082       .  S
C336        H348   1.082       .  S
C339        C833   1.515       .  S
C340        C802   1.514       .  S
C351        C352   1.392   1_554  A
C351        C356   1.409       .  A
C352        C353   1.393       .  A
C352        H371   1.086       .  S
C353        C354   1.409       .  A
C354        C355   1.424       .  A
C354        C361   1.404       .  A
C355        C356   1.424   1_556  A
C355        C360   1.416       .  A
C356        C357   1.404       .  A
C357        C358   1.395       .  A
C357        H367   1.083       .  S
C358        C359   1.404       .  A
C358        H368   1.083       .  S
C359        C360   1.424   1_554  A
C359        C366   1.409       .  A
C360        C363   1.424       .  A
C361        C362   1.395       .  A
C361        H369   1.083       .  S
C362        C363   1.404       .  A
C362        H370   1.083       .  S
C363        C364   1.409       .  A
C364        C365   1.392       .  A
C365        C366   1.393   1_556  A
C365        H372   1.086       .  S
N373        N374   1.320       .  A
N373        C377   1.347       .  A
N373       Cu381   2.092       .  S
N374        C375   1.339       .  A
N374       Cu380   2.066       .  S
C375        C376   1.386       .  A
C375        H378   1.083   1_565  S
C376        C377   1.392       .  A
C376        C537   1.477       .  S
C377        H379   1.082       .  S
Cu380       N383   2.067   1_565  S
Cu381       N391   2.092       .  S
Cu382       N384   2.059       .  S
Cu382       N390   2.061       .  S
N383        N384   1.317   1_545  A
N383        C387   1.342       .  A
N384        C385   1.345   1_565  A
C385        C386   1.385       .  A
C385        H388   1.082       .  S
C386        C387   1.387       .  A
C386        C442   1.479       .  S
C387        H389   1.082       .  S
N390        N391   1.324       .  A
N390        C394   1.339       .  A
N391        C392   1.351       .  A
C392        C393   1.386       .  A
C392        H395   1.082       .  S
C393        C394   1.375       .  A
C393        C767   1.476       .  S
C394        H396   1.082       .  S
N397        N398   1.320       .  A
N397        C401   1.347       .  A
N397       Cu405   2.089       .  S
N398        C399   1.339       .  A
N398       Cu404   2.067       .  S
C399        C400   1.386       .  A
C399        H402   1.083   1_565  S
C400        C401   1.392       .  A
C400        C725   1.476       .  S
C401        H403   1.082       .  S
Cu404       N407   2.067   1_565  S
Cu405       N415   2.090       .  S
Cu406       N408   2.060       .  S
Cu406       N414   2.061       .  S
N407        N408   1.317   1_545  A
N407        C411   1.342       .  A
N408        C409   1.344   1_565  A
C409        C410   1.384       .  A
C409        H412   1.082       .  S
C410        C411   1.387       .  A
C410        C441   1.479       .  S
C411        H413   1.082       .  S
N414        N415   1.324       .  A
N414        C418   1.339       .  A
N415        C416   1.351       .  A
C416        C417   1.386       .  A
C416        H419   1.082       .  S
C417        C418   1.375       .  A
C417        C869   1.476       .  S
C418        H420   1.082       .  S
N421        C426   1.350       .  A
N421        C425   1.350       .  A
N421        H453   1.040       .  S
N422        C429   1.351       .  A
N422        C430   1.348       .  A
N423        C428   1.358       .  A
N423        C427   1.359       .  A
N423        H454   1.043       .  S
N424        C431   1.351       .  A
N424        C432   1.348       .  A
C425        C433   1.388       .  A
C425        C441   1.413       .  A
C426        C442   1.413       .  A
C426        C434   1.388       .  A
C427        C435   1.387       .  A
C427        C444   1.429       .  A
C428        C443   1.429       .  A
C428        C436   1.387       .  A
C429        C441   1.406       .  A
C429        C437   1.382       .  A
C430        C444   1.418       .  A
C430        C438   1.391       .  A
C431        C439   1.382       .  A
C431        C442   1.406       .  A
C432        C440   1.391       .  A
C432        C443   1.418       .  A
C433        C434   1.367       .  A
C433        H445   1.080       .  S
C434        H446   1.080       .  S
C435        C436   1.390       .  A
C435        H447   1.082       .  S
C436        H448   1.082       .  S
C437        C438   1.375       .  A
C437        H449   1.082       .  S
C438        H450   1.082       .  S
C439        C440   1.375       .  A
C439        H451   1.082       .  S
C440        H452   1.082       .  S
C443        C938   1.515       .  S
C444       C1006   1.515       .  S
N455        N456   1.320       .  A
N455        C459   1.347       .  A
N455       Cu463   2.091       .  S
N456        C457   1.339       .  A
N456       Cu462   2.065       .  S
C457        C458   1.385       .  A
C457        H460   1.083   1_545  S
C458        C459   1.392       .  A
C458        C723   1.476       .  S
C459        H461   1.082       .  S
Cu462       N465   2.066   1_545  S
Cu463       N473   2.092       .  S
Cu464       N466   2.059   1_545  S
Cu464       N472   2.061       .  S
N465        N466   1.317       .  A
N465        C469   1.342       .  A
N466        C467   1.344       .  A
C467        C468   1.384       .  A
C467        H470   1.082       .  S
C468        C469   1.387       .  A
C468        C523   1.478       .  S
C469        H471   1.082       .  S
N472        N473   1.324       .  A
N472        C476   1.339       .  A
N473        C474   1.351       .  A
C474        C475   1.386       .  A
C474        H477   1.082       .  S
C475        C476   1.375       .  A
C475       C1005   1.476       .  S
C476        H478   1.082       .  S
N479        N480   1.320       .  A
N479        C483   1.347       .  A
N479       Cu487   2.089       .  S
N480        C481   1.339       .  A
N480       Cu486   2.066       .  S
C481        C482   1.386       .  A
C481        H484   1.083   1_545  S
C482        C483   1.392       .  A
C482        C539   1.476       .  S
C483        H485   1.082       .  S
Cu486       N489   2.066   1_545  S
Cu487       N497   2.089       .  S
Cu488       N490   2.060   1_545  S
Cu488       N496   2.062       .  S
N489        N490   1.317       .  A
N489        C493   1.342       .  A
N490        C491   1.344       .  A
C491        C492   1.384       .  A
C491        H494   1.082       .  S
C492        C493   1.387       .  A
C492        C524   1.478       .  S
C493        H495   1.082       .  S
N496        N497   1.324       .  A
N496        C500   1.339       .  A
N497        C498   1.351       .  A
C498        C499   1.386       .  A
C498        H501   1.082       .  S
C499        C500   1.375       .  A
C499        C937   1.476       .  S
C500        H502   1.082       .  S
N503        C508   1.350       .  A
N503        C507   1.350       .  A
N503        H535   1.040       .  S
N504        C511   1.351       .  A
N504        C512   1.348       .  A
N505        C510   1.358       .  A
N505        C509   1.358       .  A
N505        H536   1.043       .  S
N506        C513   1.351       .  A
N506        C514   1.348       .  A
C507        C515   1.388       .  A
C507        C523   1.413       .  A
C508        C524   1.413       .  A
C508        C516   1.388       .  A
C509        C517   1.387       .  A
C509        C526   1.429       .  A
C510        C525   1.429       .  A
C510        C518   1.387       .  A
C511        C523   1.406       .  A
C511        C519   1.382       .  A
C512        C526   1.418       .  A
C512        C520   1.391       .  A
C513        C521   1.382       .  A
C513        C524   1.406       .  A
C514        C522   1.391       .  A
C514        C525   1.418       .  A
C515        C516   1.368       .  A
C515        H527   1.080       .  S
C516        H528   1.080       .  S
C517        C518   1.390       .  A
C517        H529   1.082       .  S
C518        H530   1.082       .  S
C519        C520   1.375       .  A
C519        H531   1.082       .  S
C520        H532   1.082       .  S
C521        C522   1.375       .  A
C521        H533   1.082       .  S
C522        H534   1.082       .  S
C525        C768   1.514       .  S
C526        C870   1.515       .  S
C537        C538   1.392       .  A
C537        C542   1.410       .  A
C538        C539   1.393   1_565  A
C538        H557   1.086       .  S
C539        C540   1.409       .  A
C540        C541   1.424   1_545  A
C540        C547   1.404       .  A
C541        C542   1.424       .  A
C541        C546   1.416   1_655  A
C542        C543   1.404       .  A
C543        C544   1.395   1_655  A
C543        H553   1.083       .  S
C544        C545   1.404       .  A
C544        H554   1.083       .  S
C545        C546   1.424       .  A
C545        C552   1.409       .  A
C546        C549   1.424   1_565  A
C547        C548   1.395   1_655  A
C547        H555   1.083       .  S
C548        C549   1.404       .  A
C548        H556   1.083       .  S
C549        C550   1.410       .  A
C550        C551   1.392   1_545  A
C550        C644   1.477       .  S
C551        C552   1.393       .  A
C551        H558   1.086       .  S
C552        C562   1.476       .  S
N559        N560   1.320       .  A
N559        C563   1.347       .  A
N559       Cu567   2.089       .  S
N560        C561   1.339       .  A
N560       Cu566   2.066       .  S
C561        C562   1.386       .  A
C561        H564   1.083   1_565  S
C562        C563   1.392       .  A
C563        H565   1.082       .  S
Cu566       N569   2.066   1_565  S
Cu567       N577   2.089       .  S
Cu568       N570   2.060       .  S
Cu568       N576   2.061       .  S
N569        N570   1.317   1_545  A
N569        C573   1.342       .  A
N570        C571   1.344   1_565  A
C571        C572   1.384       .  A
C571        H574   1.082       .  S
C572        C573   1.387       .  A
C572        C627   1.478       .  S
C573        H575   1.082       .  S
N576        N577   1.324       .  A
N576        C580   1.339       .  A
N577        C578   1.351       .  A
C578        C579   1.386       .  A
C578        H581   1.082       .  S
C579        C580   1.375       .  A
C579        C799   1.476       .  S
C580        H582   1.082       .  S
N583        N584   1.320       .  A
N583        C587   1.347       .  A
N583       Cu591   2.091       .  S
N584        C585   1.339       .  A
N584       Cu590   2.065       .  S
C585        C586   1.385       .  A
C585        H588   1.083   1_565  S
C586        C587   1.392       .  A
C586        C736   1.476       .  S
C587        H589   1.082       .  S
Cu590       N593   2.066   1_565  S
Cu591       N601   2.091       .  S
Cu592       N594   2.059       .  S
Cu592       N600   2.061       .  S
N593        N594   1.317   1_545  A
N593        C597   1.342       .  A
N594        C595   1.344   1_565  A
C595        C596   1.385       .  A
C595        H598   1.082       .  S
C596        C597   1.387       .  A
C596        C628   1.478       .  S
C597        H599   1.082       .  S
N600        N601   1.324       .  A
N600        C604   1.339       .  A
N601        C602   1.351       .  A
C602        C603   1.386       .  A
C602        H605   1.082       .  S
C603        C604   1.375       .  A
C603        C836   1.475       .  S
C604        H606   1.082       .  S
N607        C612   1.350       .  A
N607        C611   1.350       .  A
N607        H639   1.040       .  S
N608        C615   1.351       .  A
N608        C616   1.348       .  A
N609        C614   1.358       .  A
N609        C613   1.359       .  A
N609        H640   1.043       .  S
N610        C617   1.351       .  A
N610        C618   1.348       .  A
C611        C619   1.388       .  A
C611        C627   1.413       .  A
C612        C628   1.413       .  A
C612        C620   1.388       .  A
C613        C621   1.387       .  A
C613        C630   1.429       .  A
C614        C629   1.430       .  A
C614        C622   1.387       .  A
C615        C627   1.405       .  A
C615        C623   1.382       .  A
C616        C630   1.418       .  A
C616        C624   1.391       .  A
C617        C625   1.382       .  A
C617        C628   1.406       .  A
C618        C626   1.391       .  A
C618        C629   1.418       .  A
C619        C620   1.368       .  A
C619        H631   1.080       .  S
C620        H632   1.080       .  S
C621        C622   1.390       .  A
C621        H633   1.082       .  S
C622        H634   1.082       .  S
C623        C624   1.375       .  A
C623        H635   1.082       .  S
C624        H636   1.082       .  S
C625        C626   1.375       .  A
C625        H637   1.082       .  S
C626        H638   1.082       .  S
C629        C903   1.515       .  S
C630        C972   1.515       .  S
N641        N642   1.320       .  A
N641        C645   1.348       .  A
N641       Cu649   2.092       .  S
N642        C643   1.339       .  A
N642       Cu648   2.066       .  S
C643        C644   1.386       .  A
C643        H646   1.083   1_545  S
C644        C645   1.392       .  A
C645        H647   1.082       .  S
Cu648       N651   2.067   1_545  S
Cu649       N659   2.092       .  S
Cu650       N652   2.059   1_545  S
Cu650       N658   2.061       .  S
N651        N652   1.317       .  A
N651        C655   1.342       .  A
N652        C653   1.345       .  A
C653        C654   1.385       .  A
C653        H656   1.082       .  S
C654        C655   1.387       .  A
C654        C710   1.479       .  S
C655        H657   1.082       .  S
N658        N659   1.324       .  A
N658        C662   1.339       .  A
N659        C660   1.351       .  A
C660        C661   1.387       .  A
C660        H663   1.082       .  S
C661        C662   1.375       .  A
C661        C971   1.476       .  S
C662        H664   1.082       .  S
N665        N666   1.320       .  A
N665        C669   1.347       .  A
N665       Cu673   2.090       .  S
N666        C667   1.339       .  A
N666       Cu672   2.067   1_545  S
C667        C668   1.386       .  A
C667        H670   1.083   1_545  S
C668        C669   1.392       .  A
C668        C738   1.476       .  S
C669        H671   1.082       .  S
Cu672       N675   2.067       .  S
Cu673       N683   2.090       .  S
Cu674       N676   2.060   1_545  S
Cu674       N682   2.062       .  S
N675        N676   1.317       .  A
N675        C679   1.342       .  A
N676        C677   1.344       .  A
C677        C678   1.384       .  A
C677        H680   1.082       .  S
C678        C679   1.387       .  A
C678        C709   1.478       .  S
C679        H681   1.082       .  S
N682        N683   1.324       .  A
N682        C686   1.339       .  A
N683        C684   1.351       .  A
C684        C685   1.386       .  A
C684        H687   1.082       .  S
C685        C686   1.375       .  A
C685        C904   1.476       .  S
C686        H688   1.082       .  S
N689        C694   1.350       .  A
N689        C693   1.350       .  A
N689        H721   1.040       .  S
N690        C697   1.351       .  A
N690        C698   1.348       .  A
N691        C696   1.358       .  A
N691        C695   1.358       .  A
N691        H722   1.043       .  S
N692        C699   1.351       .  A
N692        C700   1.348       .  A
C693        C701   1.388       .  A
C693        C709   1.413       .  A
C694        C710   1.413       .  A
C694        C702   1.388       .  A
C695        C703   1.387       .  A
C695        C712   1.429       .  A
C696        C711   1.429       .  A
C696        C704   1.387       .  A
C697        C709   1.406       .  A
C697        C705   1.382       .  A
C698        C712   1.418       .  A
C698        C706   1.391       .  A
C699        C707   1.382       .  A
C699        C710   1.406       .  A
C700        C708   1.391       .  A
C700        C711   1.418       .  A
C701        C702   1.367       .  A
C701        H713   1.080       .  S
C702        H714   1.080       .  S
C703        C704   1.390       .  A
C703        H715   1.082       .  S
C704        H716   1.082       .  S
C705        C706   1.375       .  A
C705        H717   1.082       .  S
C706        H718   1.082       .  S
C707        C708   1.375       .  A
C707        H719   1.082       .  S
C708        H720   1.082       .  S
C711        C800   1.515       .  S
C712        C835   1.514       .  S
C723        C724   1.392   1_544  A
C723        C728   1.409       .  A
C724        C725   1.393       .  A
C724        H743   1.086       .  S
C725        C726   1.409       .  A
C726        C727   1.424       .  A
C726        C733   1.404       .  A
C727        C728   1.424   1_566  A
C727        C732   1.416   1_655  A
C728        C729   1.404       .  A
C729        C730   1.395   1_655  A
C729        H739   1.083       .  S
C730        C731   1.404       .  A
C730        H740   1.083       .  S
C731        C732   1.424   1_544  A
C731        C738   1.409       .  A
C732        C735   1.424       .  A
C733        C734   1.395   1_655  A
C733        H741   1.083       .  S
C734        C735   1.404       .  A
C734        H742   1.083       .  S
C735        C736   1.409       .  A
C736        C737   1.392       .  A
C737        C738   1.393   1_566  A
C737        H744   1.086       .  S
N745        C750   1.360       .  A
N745        C749   1.354       .  A
N745        H777   1.037       .  S
N746        C753   1.346       .  A
N746        C754   1.352       .  A
N747        C752   1.354       .  A
N747        C751   1.359       .  A
N747        H778   1.037       .  S
N748        C755   1.352       .  A
N748        C756   1.347       .  A
C749        C757   1.386       .  A
C749        C765   1.418       .  A
C750        C766   1.428       .  A
C750        C758   1.388       .  A
C751        C759   1.388       .  A
C751        C768   1.428       .  A
C752        C767   1.417       .  A
C752        C760   1.386       .  A
C753        C765   1.413       .  A
C753        C761   1.386       .  A
C754        C768   1.416       .  A
C754        C762   1.386       .  A
C755        C763   1.386       .  A
C755        C766   1.416       .  A
C756        C764   1.386       .  A
C756        C767   1.413       .  A
C757        C758   1.374       .  A
C757        H769   1.082       .  S
C758        H770   1.082       .  S
C759        C760   1.374       .  A
C759        H771   1.082       .  S
C760        H772   1.082       .  S
C761        C762   1.379       .  A
C761        H773   1.082       .  S
C762        H774   1.081       .  S
C763        C764   1.379       .  A
C763        H775   1.081       .  S
C764        H776   1.082       .  S
N779        C784   1.360       .  A
N779        C783   1.354       .  A
N779        H811   1.037       .  S
N780        C787   1.346       .  A
N780        C788   1.352       .  A
N781        C786   1.354       .  A
N781        C785   1.360       .  A
N781        H812   1.037       .  S
N782        C789   1.352       .  A
N782        C790   1.347       .  A
C783        C791   1.386       .  A
C783        C799   1.418       .  A
C784        C800   1.428       .  A
C784        C792   1.388       .  A
C785        C793   1.387       .  A
C785        C802   1.428       .  A
C786        C801   1.417       .  A
C786        C794   1.386       .  A
C787        C799   1.413       .  A
C787        C795   1.386       .  A
C788        C802   1.416       .  A
C788        C796   1.386       .  A
C789        C797   1.386       .  A
C789        C800   1.416       .  A
C790        C798   1.386       .  A
C790        C801   1.413       .  A
C791        C792   1.374       .  A
C791        H803   1.082       .  S
C792        H804   1.082       .  S
C793        C794   1.374       .  A
C793        H805   1.082       .  S
C794        H806   1.082       .  S
C795        C796   1.379       .  A
C795        H807   1.082       .  S
C796        H808   1.081       .  S
C797        C798   1.378       .  A
C797        H809   1.081       .  S
C798        H810   1.082       .  S
N813        C818   1.354       .  A
N813        C817   1.359       .  A
N813        H845   1.037       .  S
N814        C821   1.352       .  A
N814        C822   1.347       .  A
N815        C820   1.359       .  A
N815        C819   1.354       .  A
N815        H846   1.037       .  S
N816        C823   1.346       .  A
N816        C824   1.352       .  A
C817        C825   1.388       .  A
C817        C833   1.428       .  A
C818        C834   1.418   1_556  A
C818        C826   1.386       .  A
C819        C827   1.386       .  A
C819        C836   1.417   1_554  A
C820        C835   1.428       .  A
C820        C828   1.388       .  A
C821        C833   1.416       .  A
C821        C829   1.386       .  A
C822        C836   1.413       .  A
C822        C830   1.386       .  A
C823        C831   1.386       .  A
C823        C834   1.413       .  A
C824        C832   1.386       .  A
C824        C835   1.416       .  A
C825        C826   1.374       .  A
C825        H837   1.082       .  S
C826        H838   1.082       .  S
C827        C828   1.374       .  A
C827        H839   1.082       .  S
C828        H840   1.082       .  S
C829        C830   1.378       .  A
C829        H841   1.081       .  S
C830        H842   1.082       .  S
C831        C832   1.379       .  A
C831        H843   1.082       .  S
C832        H844   1.081       .  S
N847        C852   1.359       .  A
N847        C851   1.354       .  A
N847        H879   1.037       .  S
N848        C855   1.347       .  A
N848        C856   1.352       .  A
N849        C854   1.354       .  A
N849        C853   1.359       .  A
N849        H880   1.037       .  S
N850        C857   1.352       .  A
N850        C858   1.346       .  A
C851        C859   1.386       .  A
C851        C867   1.417   1_556  A
C852        C868   1.428       .  A
C852        C860   1.388       .  A
C853        C861   1.388       .  A
C853        C870   1.428       .  A
C854        C869   1.418   1_554  A
C854        C862   1.386       .  A
C855        C867   1.413       .  A
C855        C863   1.386       .  A
C856        C870   1.416       .  A
C856        C864   1.386       .  A
C857        C865   1.386       .  A
C857        C868   1.416       .  A
C858        C866   1.386       .  A
C858        C869   1.413       .  A
C859        C860   1.374       .  A
C859        H871   1.082       .  S
C860        H872   1.082       .  S
C861        C862   1.374       .  A
C861        H873   1.082       .  S
C862        H874   1.082       .  S
C863        C864   1.379       .  A
C863        H875   1.082       .  S
C864        H876   1.081       .  S
C865        C866   1.379       .  A
C865        H877   1.081       .  S
C866        H878   1.082       .  S
N881        C886   1.354       .  A
N881        C885   1.359       .  A
N881        H913   1.037       .  S
N882        C889   1.352       .  A
N882        C890   1.346       .  A
N883        C888   1.359       .  A
N883        C887   1.354       .  A
N883        H914   1.037       .  S
N884        C891   1.347       .  A
N884        C892   1.352       .  A
C885        C893   1.388       .  A
C885        C901   1.428       .  A
C886        C902   1.417   1_554  A
C886        C894   1.386       .  A
C887        C895   1.386       .  A
C887        C904   1.417   1_556  A
C888        C903   1.428       .  A
C888        C896   1.388       .  A
C889        C901   1.416       .  A
C889        C897   1.386       .  A
C890        C904   1.413       .  A
C890        C898   1.386       .  A
C891        C899   1.386       .  A
C891        C902   1.413       .  A
C892        C900   1.386       .  A
C892        C903   1.416       .  A
C893        C894   1.374       .  A
C893        H905   1.082       .  S
C894        H906   1.082       .  S
C895        C896   1.374       .  A
C895        H907   1.082       .  S
C896        H908   1.082       .  S
C897        C898   1.379       .  A
C897        H909   1.081       .  S
C898        H910   1.082       .  S
C899        C900   1.379       .  A
C899        H911   1.082       .  S
C900        H912   1.081       .  S
N915        C920   1.359       .  A
N915        C919   1.354       .  A
N915        H947   1.037       .  S
N916        C923   1.347       .  A
N916        C924   1.352       .  A
N917        C922   1.354       .  A
N917        C921   1.360       .  A
N917        H948   1.037       .  S
N918        C925   1.352       .  A
N918        C926   1.346       .  A
C919        C927   1.386       .  A
C919        C935   1.417       .  A
C920        C936   1.428       .  A
C920        C928   1.388       .  A
C921        C929   1.388       .  A
C921        C938   1.428       .  A
C922        C937   1.418       .  A
C922        C930   1.386       .  A
C923        C935   1.413       .  A
C923        C931   1.386       .  A
C924        C938   1.416       .  A
C924        C932   1.386       .  A
C925        C933   1.386       .  A
C925        C936   1.416       .  A
C926        C934   1.386       .  A
C926        C937   1.413       .  A
C927        C928   1.374       .  A
C927        H939   1.082       .  S
C928        H940   1.082       .  S
C929        C930   1.374       .  A
C929        H941   1.082       .  S
C930        H942   1.082       .  S
C931        C932   1.378       .  A
C931        H943   1.082       .  S
C932        H944   1.081       .  S
C933        C934   1.379       .  A
C933        H945   1.081       .  S
C934        H946   1.082       .  S
N949        C954   1.359       .  A
N949        C953   1.354       .  A
N949        H981   1.037       .  S
N950        C957   1.346       .  A
N950        C958   1.352       .  A
N951        C956   1.354       .  A
N951        C955   1.360       .  A
N951        H982   1.037       .  S
N952        C959   1.352       .  A
N952        C960   1.347       .  A
C953        C961   1.386       .  A
C953        C969   1.418       .  A
C954        C970   1.428       .  A
C954        C962   1.388       .  A
C955        C963   1.388       .  A
C955        C972   1.428       .  A
C956        C971   1.417       .  A
C956        C964   1.386       .  A
C957        C969   1.413       .  A
C957        C965   1.386       .  A
C958        C972   1.416       .  A
C958        C966   1.386       .  A
C959        C967   1.386       .  A
C959        C970   1.416       .  A
C960        C968   1.386       .  A
C960        C971   1.413       .  A
C961        C962   1.374       .  A
C961        H973   1.082       .  S
C962        H974   1.082       .  S
C963        C964   1.374       .  A
C963        H975   1.082       .  S
C964        H976   1.082       .  S
C965        C966   1.379       .  A
C965        H977   1.082       .  S
C966        H978   1.081       .  S
C967        C968   1.379       .  A
C967        H979   1.081       .  S
C968        H980   1.082       .  S
N983        C988   1.359       .  A
N983        C987   1.354       .  A
N983       H1015   1.037       .  S
N984        C991   1.346       .  A
N984        C992   1.352       .  A
N985        C990   1.354       .  A
N985        C989   1.359       .  A
N985       H1016   1.037       .  S
N986        C993   1.352       .  A
N986        C994   1.347       .  A
C987        C995   1.386       .  A
C987       C1003   1.418   1_554  A
C988       C1004   1.428       .  A
C988        C996   1.388       .  A
C989        C997   1.387       .  A
C989       C1006   1.428       .  A
C990       C1005   1.417   1_556  A
C990        C998   1.386       .  A
C991       C1003   1.413       .  A
C991        C999   1.386       .  A
C992       C1006   1.416       .  A
C992       C1000   1.386       .  A
C993       C1001   1.386       .  A
C993       C1004   1.416       .  A
C994       C1002   1.386       .  A
C994       C1005   1.413       .  A
C995        C996   1.374       .  A
C995       H1007   1.082       .  S
C996       H1008   1.082       .  S
C997        C998   1.374       .  A
C997       H1009   1.082       .  S
C998       H1010   1.082       .  S
C999       C1000   1.379       .  A
C999       H1011   1.082       .  S
C1000      H1012   1.081       .  S
C1001      C1002   1.378       .  A
C1001      H1013   1.081       .  S
C1002      H1014   1.082       .  S
