geometry optimzed in LAMMPS
_audit_creation_date              2020-11-30 
_audit_creation_method            'lammps2cif' 
_symmetry_space_group_name_H-M    'P1' 
_symmetry_Int_Tables_number       1 
_symmetry_cell_setting            triclinic 
loop_ 
_symmetry_equiv_pos_as_xyz 
  x,y,z 
_cell_length_a                    36.67878332 
_cell_length_b                    48.81035372247191 
_cell_length_c                    25.33740858075325 
_cell_angle_alpha                 90.8857982542804 
_cell_angle_beta                  89.12799381067202 
_cell_angle_gamma                 91.12449541494752 
loop_ 
_atom_site_label 
_atom_site_type_symbol 
_atom_site_fract_x 
_atom_site_fract_y 
_atom_site_fract_z 
_atom_site_charge 
O1          O  0.53037220  0.53523180  0.90668872    -0.73900
O2          O  0.45261585  0.48077543  0.91782493    -0.74000
O3          O  0.45654084  0.53695747  0.91408983    -0.74000
O4          O  0.52648893  0.47892287  0.90963123    -0.74100
O5          O  0.52999309  0.48110947  0.99734189    -0.74000
O6          O  0.46035230  0.53871662  0.00182346    -0.74000
O7          O  0.45686942  0.48301053  0.00548234    -0.74000
O8          O  0.53294513  0.53670145  0.99455228    -0.74000
Ni9        Ni  0.49135783  0.50786981  0.90877532     1.25400
Ni10       Ni  0.49513247  0.50990901  0.00273245     1.25400
C11         C  0.54354337  0.54548763  0.94948848     0.88200
C12         C  0.44265235  0.47256233  0.96386596     0.88200
C13         C  0.44795155  0.54799040  0.95872187     0.88200
C14         C  0.53930602  0.47015901  0.95294009     0.88400
O15         O  0.04821119  0.02117270  0.00005282    -0.73900
O16         O  0.98060842  0.96109806  0.00835195    -0.74000
O17         O  0.97482859  0.01646215  0.00088901    -0.74000
O18         O  0.05346181  0.96585749  0.00810778    -0.74100
O19         O  0.05195163  0.96935896  0.09594985    -0.74000
O20         O  0.97441992  0.02141617  0.08847525    -0.74000
O21         O  0.97821993  0.96552481  0.09608891    -0.74000
O22         O  0.04847943  0.02505910  0.08787018    -0.74000
Ni23       Ni  0.01431006  0.99105463  0.00134229     1.25400
Ni24       Ni  0.01323556  0.99550694  0.09532095     1.25400
C25         C  0.05912858  0.03328594  0.04221974     0.88200
C26         C  0.96894290  0.95295851  0.05337814     0.88200
C27         C  0.96206204  0.02771383  0.04320459     0.88200
C28         C  0.06487491  0.95860968  0.05327767     0.88400
O29         O  0.15344715  0.26409207  0.94164155    -0.80400
O30         O  0.26513162  0.23637105  0.11257558    -0.65100
O31         O  0.20620829  0.27525701  0.01820410    -1.11700
C32         C  0.29554617  0.24420756  0.89339685     1.06500
O33         O  0.31352268  0.25864464  0.08123048    -0.78300
O34         O  0.31625339  0.28825457  0.99395524    -0.65900
Ni35       Ni  0.15472845  0.26941436  0.01717764     1.34900
C36         C  0.29426952  0.30563570  0.97692183     0.85200
O37         O  0.20546111  0.26552741  0.12730390    -0.78800
O38         O  0.15100332  0.27484913  0.09290512    -0.89100
C39         C  0.29759556  0.24507230  0.11751371     0.84800
O40         O  0.15391919  0.23043580  0.02347211    -0.67300
O41         O  0.31602267  0.24095498  0.93303684    -0.86600
C42         C  0.17588355  0.21380894  0.04319043     0.85600
C43         C  0.17230119  0.27248730  0.13199049     1.07200
H44         H  0.25705640  0.22614046  0.99743997     0.39000
O45         O  0.26156134  0.24529468  0.00531529    -1.09300
O46         O  0.26203105  0.29948697  0.96259099    -0.65900
Ni47       Ni  0.23437435  0.26549153  0.95660317     1.26300
O48         O  0.20667296  0.22107331  0.06156430    -0.66100
O49         O  0.26380437  0.25454440  0.89647213    -0.78400
C50         C  0.17115664  0.27597074  0.90463184     0.85000
O51         O  0.20373558  0.28436204  0.91017269    -0.65600
Ni52       Ni  0.31294942  0.24992989  0.00702531     1.27400
Ni53       Ni  0.23402878  0.25515354  0.06680339     1.26100
H54         H  0.21023019  0.29451633  0.02606698     0.39600
O55         O  0.69233940  0.29986673  0.04725760    -0.80400
O56         O  0.76906950  0.18967413  0.06310863    -0.65100
O57         O  0.74731827  0.26317659  0.02493876    -1.11700
C58         C  0.66305832  0.22007989  0.90888643     1.06500
O59         O  0.77006820  0.17621249  0.97900735    -0.78300
O60         O  0.75252908  0.20915170  0.89976705    -0.65900
Ni61       Ni  0.73876101  0.29122366  0.07555050     1.34900
C62         C  0.75801192  0.23438463  0.89043558     0.85200
O63         O  0.79421203  0.23902510  0.09581971    -0.78800
O64         O  0.78421578  0.28424043  0.10766733    -0.89100
C65         C  0.78041568  0.17363918  0.02644361     0.84800
O66         O  0.71389873  0.27017470  0.12791526    -0.67300
O67         O  0.68040326  0.19797549  0.91547642    -0.86600
C68         C  0.70796665  0.24483717  0.13538235     0.85600
C69         C  0.80137814  0.26241143  0.11705995     1.07200
H70         H  0.69761994  0.21162277  0.02098611     0.39000
O71         O  0.71863711  0.21729738  0.00016045    -1.09300
O72         O  0.74374696  0.25365064  0.91818908    -0.65900
Ni73       Ni  0.70907824  0.25377074  0.97765503     1.26300
O74         O  0.72163190  0.22612329  0.10583148    -0.66100
O75         O  0.67098986  0.24281823  0.93147927    -0.78400
C76         C  0.68722208  0.30688989  0.00005082     0.85000
O77         O  0.69841935  0.29161302  0.96212762    -0.65600
Ni78       Ni  0.72489311  0.18860377  0.94979107     1.27400
Ni79       Ni  0.75708898  0.22704858  0.04761542     1.26100
H80         H  0.76826886  0.26925241  0.00437115     0.39600
O81         O  0.84457761  0.71142156  0.94960975    -0.80400
O82         O  0.74876459  0.77228937  0.12746730    -0.65100
O83         O  0.79102690  0.72268573  0.02643518    -1.11700
C84         C  0.71032864  0.76547188  0.90856894     1.06500
O85         O  0.69305876  0.76174816  0.10068405    -0.78300
O86         O  0.68331349  0.72789776  0.01845386    -0.65900
Ni87       Ni  0.84317931  0.72049639  0.02356022     1.34900
C88         C  0.69845898  0.70820301  0.99410610     0.85200
O89         O  0.79525073  0.73216307  0.13608751    -0.78800
O90         O  0.84981955  0.72694856  0.09819823    -0.89100
C91         C  0.71490762  0.76961678  0.13656737     0.84800
O92         O  0.84852445  0.75858410  0.00893504    -0.67300
O93         O  0.69115247  0.77084709  0.94973389    -0.86600
C94         C  0.83624454  0.77820050  0.03716545     0.85600
C95         C  0.82907875  0.72785035  0.13880372     1.07200
H96         H  0.75652585  0.78073556  0.01241089     0.39000
O97         O  0.74680808  0.76256332  0.01917992    -1.09300
O98         O  0.72954344  0.71017329  0.97157601    -0.65900
Ni99       Ni  0.76686808  0.73838253  0.96686029     1.26300
O100        O  0.80967825  0.77525960  0.06990069    -0.66100
O101        O  0.74139974  0.75428261  0.90963802    -0.78400
C102        C  0.82231634  0.70815692  0.91206206     0.85000
O103        O  0.78926519  0.71512490  0.91529011    -0.65600
Ni104      Ni  0.69505758  0.76591451  0.02488992     1.27400
Ni105      Ni  0.77112910  0.74773505  0.07790127     1.26100
H106        H  0.78119555  0.70455063  0.03324143     0.39600
O107        O  0.34253468  0.78153391  0.10995928    -0.80400
O108        O  0.25075864  0.73885561  0.91269256    -0.65100
O109        O  0.29032819  0.78009953  0.02862200    -1.11700
C110        C  0.20744447  0.73350470  0.13694273     1.06500
O111        O  0.19623533  0.72771872  0.94691609    -0.78300
O112        O  0.19107218  0.77157490  0.01336637    -0.65900
Ni113      Ni  0.34222924  0.78421256  0.03406959     1.34900
C114        C  0.20244853  0.79016620  0.04504910     0.85200
O115        O  0.29551968  0.78118542  0.91932800    -0.78800
O116        O  0.34874892  0.78931156  0.95922445    -0.89100
C117        C  0.21850519  0.72939761  0.90827067     0.84800
O118        O  0.35047176  0.74574084  0.02858194    -0.67300
O119        O  0.18719853  0.73555324  0.09708474    -0.86600
C120        C  0.33737690  0.72800837  0.99650776     0.85600
C121        C  0.32836859  0.78981446  0.91904311     1.07200
H122        H  0.25836627  0.71934820  0.02642265     0.39000
O123        O  0.24783070  0.73729912  0.02479405    -1.09300
O124        O  0.22613005  0.78576065  0.08024397    -0.65900
Ni125      Ni  0.26554308  0.75958556  0.08207531     1.26300
O126        O  0.31037789  0.73266050  0.96711852    -0.66100
O127        O  0.24131594  0.73854748  0.13487565    -0.78400
C128        C  0.31846923  0.78397063  0.14626258     0.85000
O129        O  0.28476166  0.78138620  0.13779668    -0.65600
Ni130      Ni  0.19578722  0.73308160  0.02178364     1.27400
Ni131      Ni  0.27149605  0.75900542  0.97060972     1.26100
H132        H  0.28059317  0.79831779  0.02712764     0.39600
O133        O  0.01417989  0.26087042  0.46776109    -0.73900
O134        O  0.93517403  0.25457233  0.56900714    -0.74000
O135        O  0.94106786  0.25817579  0.46218085    -0.74000
O136        O  0.00811997  0.25677355  0.57420068    -0.74100
O137        O  0.00839155  0.30247450  0.57999812    -0.74000
O138        O  0.93723158  0.30361335  0.47047132    -0.74000
O139        O  0.93434101  0.30005043  0.57825038    -0.74000
O140        O  0.01024102  0.30640489  0.47270176    -0.74000
Ni141      Ni  0.97466472  0.25600493  0.51808153     1.25400
Ni142      Ni  0.97246741  0.30480520  0.52577358     1.25400
C143        C  0.02412333  0.28478846  0.45214620     0.88200
C144        C  0.92243930  0.27620794  0.59142143     0.88200
C145        C  0.92897891  0.28102389  0.44669225     0.88200
C146        C  0.01912270  0.27917770  0.59573381     0.88400
O147        O  0.98044705  0.67735929  0.57598192    -0.73900
O148        O  0.05961634  0.68484438  0.47663202    -0.74000
O149        O  0.05348906  0.68114220  0.58384777    -0.74000
O150        O  0.98665956  0.68122016  0.46892143    -0.74100
O151        O  0.98267844  0.72669032  0.47644999    -0.74000
O152        O  0.05090261  0.72674667  0.58984591    -0.74000
O153        O  0.05644309  0.73037857  0.48363794    -0.74000
O154        O  0.97687900  0.72290653  0.58242772    -0.74000
Ni155      Ni  0.02017536  0.67951466  0.52616028     1.25400
Ni156      Ni  0.01662550  0.72830695  0.53341398     1.25400
C157        C  0.96574518  0.69889133  0.59551461     0.88200
C158        C  0.07058026  0.70884517  0.46312502     0.88200
C159        C  0.06311174  0.70393238  0.60569464     0.88200
C160        C  0.97398451  0.70397894  0.45350411     0.88400
O161        O  0.54367777  0.76094596  0.46949237    -0.73900
O162        O  0.47230623  0.77128598  0.57912983    -0.74000
O163        O  0.47135081  0.77096964  0.47343143    -0.74000
O164        O  0.54504009  0.76097596  0.57655489    -0.74100
O165        O  0.55693789  0.80596784  0.57841073    -0.74000
O166        O  0.48453841  0.81579220  0.47291645    -0.74000
O167        O  0.48478021  0.81625214  0.57995272    -0.74000
O168        O  0.55701072  0.80573166  0.47088455    -0.74000
Ni169      Ni  0.50776355  0.76444134  0.52470938     1.25400
Ni170      Ni  0.52129231  0.81255291  0.52554694     1.25400
C171        C  0.56186788  0.78159839  0.45176249     0.88200
C172        C  0.46648774  0.79550792  0.59692979     0.88200
C173        C  0.46586671  0.79502696  0.45622390     0.88200
C174        C  0.56280802  0.78178638  0.59496682     0.88400
O175        O  0.44601497  0.20199163  0.55072899    -0.73900
O176        O  0.52672625  0.20474771  0.45117072    -0.74000
O177        O  0.51904681  0.20014079  0.55853630    -0.74000
O178        O  0.45348438  0.20618115  0.44401611    -0.74100
O179        O  0.45960661  0.25177009  0.44912642    -0.74000
O180        O  0.51859356  0.24552137  0.57059557    -0.74000
O181        O  0.53137864  0.24991681  0.46470134    -0.74000
O182        O  0.44637868  0.24770171  0.55415049    -0.74000
Ni183      Ni  0.48628990  0.20157012  0.50082850     1.25400
Ni184      Ni  0.48913234  0.25033796  0.51002808     1.25400
C185        C  0.43288237  0.22456259  0.56849072     0.88200
C186        C  0.54184850  0.22805233  0.44084070     0.88200
C187        C  0.52807348  0.22169745  0.58497493     0.88200
C188        C  0.44708939  0.23002743  0.42659370     0.88400
C189        C  0.35242957  0.78082653  0.28690731     0.16400
C190        C  0.36489190  0.77140116  0.33526897    -0.32600
C191        C  0.39264072  0.78676111  0.36009381     0.20800
C192        C  0.40608966  0.81107380  0.33903543     0.03000
C193        C  0.39348320  0.82055049  0.29095897    -0.22300
C194        C  0.36708700  0.80454586  0.26490983     0.12200
S195        S  0.32205744  0.76358618  0.24757679    -0.06000
C196        C  0.33060121  0.78796378  0.20043126    -0.09500
C197        C  0.35487754  0.80860453  0.21497823    -0.26100
S198        S  0.44082770  0.82611269  0.37352308    -0.03300
C199        C  0.43850475  0.79873835  0.41540809    -0.16700
C200        C  0.41127592  0.77950393  0.40403116    -0.14700
H201        H  0.35473703  0.75226229  0.35144913     0.20700
H202        H  0.40509709  0.83887619  0.27332726     0.16700
H203        H  0.36434556  0.82493769  0.18943623     0.19200
H204        H  0.40632370  0.76075339  0.42553418     0.12600
C205        C  0.38521131  0.81463087  0.80134876     0.16400
C206        C  0.41417931  0.82335469  0.76875055    -0.32600
C207        C  0.41553036  0.81273419  0.71710876     0.20800
C208        C  0.38873400  0.79478937  0.69833149     0.03000
C209        C  0.35873061  0.78728483  0.73001702    -0.22300
C210        C  0.35790538  0.79729922  0.78207409     0.12200
S211        S  0.38262227  0.82071991  0.86770909    -0.06000
C212        C  0.34449731  0.79957655  0.86938800    -0.09500
C213        C  0.33389671  0.78914525  0.82078978    -0.26100
S214        S  0.39817843  0.78073579  0.63779387    -0.03300
C215        C  0.43848573  0.79933282  0.63783288    -0.16700
C216        C  0.44384481  0.81593576  0.68183895    -0.14700
H217        H  0.43604700  0.83626388  0.78406530     0.20700
H218        H  0.33830891  0.77272178  0.71593112     0.16700
H219        H  0.31174513  0.77446046  0.81487352     0.19200
H220        H  0.46832441  0.82807848  0.68922840     0.12600
C221        C  0.15445553  0.70630936  0.25665552     0.16400
C222        C  0.13092580  0.69209454  0.29109220    -0.32600
C223        C  0.12484809  0.70355843  0.34141143     0.20800
C224        C  0.14139672  0.72813617  0.35683516     0.03000
C225        C  0.16601891  0.74185902  0.32304367    -0.22300
C226        C  0.17214276  0.73035409  0.27265972     0.12200
S227        S  0.16231866  0.69720411  0.19228488    -0.06000
C228        C  0.19046580  0.72564565  0.18726245    -0.09500
C229        C  0.19349810  0.74132260  0.23308150    -0.26100
S230        S  0.12678347  0.74035526  0.41690262    -0.03300
C231        C  0.09855022  0.71184220  0.42144848    -0.16700
C232        C  0.10083057  0.69380872  0.37885155    -0.14700
H233        H  0.11690720  0.67343579  0.27852382     0.20700
H234        H  0.17878309  0.76115422  0.33476783     0.16700
H235        H  0.20914238  0.76030776  0.23644261     0.19200
H236        H  0.08398436  0.67549273  0.37397908     0.12600
C237        C  0.11679385  0.69770000  0.73292250     0.16400
C238        C  0.12821111  0.69231588  0.78406365    -0.32600
C239        C  0.16057741  0.70505294  0.80108405     0.20800
C240        C  0.18136964  0.72192375  0.76842163     0.03000
C241        C  0.16997101  0.72728121  0.71697270    -0.22300
C242        C  0.13691910  0.71511404  0.70038497     0.12200
S243        S  0.07750593  0.68495079  0.70599019    -0.06000
C244        C  0.08774100  0.70373476  0.65071808    -0.09500
C245        C  0.12002865  0.71893924  0.65312335    -0.26100
S246        S  0.21840502  0.73692954  0.79851592    -0.03300
C247        C  0.20464892  0.72111509  0.85607144    -0.16700
C248        C  0.17390394  0.70437282  0.85105189    -0.14700
H249        H  0.11194879  0.67942046  0.81009478     0.20700
H250        H  0.18548314  0.74104429  0.69169598     0.16700
H251        H  0.13052236  0.73197600  0.62197333     0.19200
H252        H  0.16051180  0.69368848  0.88334831     0.12600
C253        C  0.63081112  0.76105592  0.70080166     0.16400
C254        C  0.65300184  0.74708581  0.73573342    -0.32600
C255        C  0.66758603  0.76198935  0.77864408     0.20800
C256        C  0.66033779  0.78955672  0.78640174     0.03000
C257        C  0.63910937  0.80368795  0.75058330    -0.22300
C258        C  0.62449649  0.78880296  0.70778435     0.12200
S259        S  0.60788272  0.74621487  0.64914596    -0.06000
C260        C  0.58992385  0.77779252  0.63646050    -0.09500
C261        C  0.60150155  0.79860276  0.67053767    -0.26100
S262        S  0.67695468  0.80324643  0.84391362    -0.03300
C263        C  0.69465861  0.77172938  0.85712255    -0.16700
C264        C  0.68783846  0.75174062  0.81878369    -0.14700
H265        H  0.65771567  0.72536526  0.73066049     0.20700
H266        H  0.63318141  0.82515074  0.75682712     0.16700
H267        H  0.59242305  0.81956362  0.66941503     0.19200
H268        H  0.69540378  0.73048456  0.82175921     0.12600
C269        C  0.67340034  0.78854969  0.27184412     0.16400
C270        C  0.65796929  0.80206348  0.31598484    -0.32600
C271        C  0.63194590  0.78746535  0.34644144     0.20800
C272        C  0.62257420  0.76045820  0.33426913     0.03000
C273        C  0.63818571  0.74695385  0.29073551    -0.22300
C274        C  0.66324664  0.76171021  0.25957541     0.12200
S275        S  0.70291549  0.80310114  0.22663070    -0.06000
C276        C  0.70025538  0.77293976  0.19048184    -0.09500
C277        C  0.67849758  0.75273261  0.21310541    -0.26100
S278        S  0.58985508  0.74638094  0.37443640    -0.03300
C279        C  0.58812609  0.77725303  0.40800207    -0.16700
C280        C  0.61209157  0.79730028  0.38888002    -0.14700
H281        H  0.66498894  0.82324128  0.32512320     0.20700
H282        H  0.63016065  0.72609433  0.28049073     0.16700
H283        H  0.67296164  0.73280520  0.19523127     0.19200
H284        H  0.61445891  0.81799493  0.40464779     0.12600
C285        C  0.88536583  0.70138542  0.69319657     0.16400
C286        C  0.85501557  0.70912311  0.72381540    -0.32600
C287        C  0.85197367  0.69890820  0.77516931     0.20800
C288        C  0.87751553  0.68119647  0.79458716     0.03000
C289        C  0.90667667  0.67224513  0.76294117    -0.22300
C290        C  0.91023182  0.68301703  0.71217695     0.12200
S291        S  0.89765039  0.71541842  0.63402542    -0.06000
C292        C  0.93630959  0.69602577  0.63480652    -0.09500
C293        C  0.93916276  0.67941441  0.67820801    -0.26100
S294        S  0.87319640  0.67523717  0.86048782    -0.03300
C295        C  0.83672904  0.69694446  0.86206523    -0.16700
C296        C  0.82778595  0.70741331  0.81353701    -0.14700
H297        H  0.83609756  0.72400269  0.70967336     0.20700
H298        H  0.92719266  0.65905612  0.77855477     0.16700
H299        H  0.96239028  0.66681558  0.68610831     0.19200
H300        H  0.80720037  0.72265189  0.80777637     0.12600
C301        C  0.92522248  0.69924889  0.32131854     0.16400
C302        C  0.91597323  0.69422735  0.26865707    -0.32600
C303        C  0.88697096  0.70878484  0.24833338     0.20800
C304        C  0.86723546  0.72707789  0.27929196     0.03000
C305        C  0.87689629  0.73247966  0.33197510    -0.22300
C306        C  0.90666726  0.71838185  0.35196873     0.12200
S307        S  0.96002717  0.68385857  0.35254301    -0.06000
C308        C  0.95055704  0.70407111  0.40700704    -0.09500
C309        C  0.92150083  0.72153472  0.40124071    -0.26100
S310        S  0.83243040  0.74214921  0.24677140    -0.03300
C311        C  0.84565450  0.72424394  0.19069096    -0.16700
C312        C  0.87503893  0.70735619  0.19747538    -0.14700
H313        H  0.93106541  0.67981772  0.24431996     0.20700
H314        H  0.86220464  0.74723638  0.35603658     0.16700
H315        H  0.91200239  0.73583772  0.43127114     0.19200
H316        H  0.88716297  0.69475598  0.16659781     0.12600
C317        C  0.61427287  0.24680341  0.33541465     0.16400
C318        C  0.63911055  0.26061596  0.30229345    -0.32600
C319        C  0.65252387  0.24649069  0.25775248     0.20800
C320        C  0.64194497  0.21967784  0.24636655     0.03000
C321        C  0.61682949  0.20577969  0.27963645    -0.22300
C322        C  0.60328485  0.21999925  0.32449222     0.12200
S323        S  0.59430028  0.26098229  0.39029587    -0.06000
C324        C  0.57060245  0.23054726  0.39940532    -0.09500
C325        C  0.57818633  0.21047686  0.36133693    -0.26100
S326        S  0.66178481  0.20656872  0.18962749    -0.03300
C327        C  0.68410288  0.23774058  0.18122557    -0.16700
C328        C  0.67640379  0.25686340  0.22081801    -0.14700
H329        H  0.64742771  0.28163019  0.31066934     0.20700
H330        H  0.60810102  0.18491336  0.27083175     0.16700
H331        H  0.56520233  0.19037459  0.35974815     0.19200
H332        H  0.68761868  0.27755388  0.22239922     0.12600
C333        C  0.57857507  0.20346684  0.70981050     0.16400
C334        C  0.59761682  0.19068801  0.74966299    -0.32600
C335        C  0.60628550  0.20640892  0.79455835     0.20800
C336        C  0.59579503  0.23346780  0.80008737     0.03000
C337        C  0.57629392  0.24613891  0.76056063    -0.22300
C338        C  0.56842360  0.23061094  0.71511397     0.12200
S339        S  0.56660275  0.18817183  0.65157107    -0.06000
C340        C  0.54818349  0.21879831  0.63392430    -0.09500
C341        C  0.55108520  0.23959236  0.67149442    -0.26100
S342        S  0.61190833  0.24981852  0.85500515    -0.03300
C343        C  0.63395756  0.22011800  0.86988771    -0.16700
C344        C  0.62780178  0.19849541  0.83492106    -0.14700
H345        H  0.60628766  0.16968890  0.74515117     0.20700
H346        H  0.56874656  0.26743285  0.76424148     0.16700
H347        H  0.54049147  0.26000500  0.66750102     0.19200
H348        H  0.64073967  0.17877422  0.83656955     0.12600
C349        C  0.86195373  0.25509281  0.23583712     0.16400
C350        C  0.87944384  0.24512825  0.27993994    -0.32600
C351        C  0.88668031  0.26368328  0.32126566     0.20800
C352        C  0.87740873  0.29103619  0.31888879     0.03000
C353        C  0.85992855  0.30103221  0.27468842    -0.22300
C354        C  0.85245723  0.28239852  0.23345334     0.12200
S355        S  0.84809068  0.23536225  0.18352007    -0.06000
C356        C  0.82863826  0.26412917  0.15861798    -0.09500
C357        C  0.83375590  0.28778236  0.18887432    -0.26100
S358        S  0.88975028  0.31030559  0.37279149    -0.03300
C359        C  0.90733310  0.28105325  0.39866291    -0.16700
C360        C  0.90356284  0.25781304  0.36705561    -0.14700
H361        H  0.88659796  0.22376458  0.28231703     0.20700
H362        H  0.85218190  0.32228541  0.27271656     0.16700
H363        H  0.82204248  0.30745264  0.18074881     0.19200
H364        H  0.91384324  0.23781124  0.37623967     0.12600
C365        C  0.82092683  0.23678486  0.76755268     0.16400
C366        C  0.84344966  0.22983443  0.72451030    -0.32600
C367        C  0.85927246  0.25116772  0.69527155     0.20800
C368        C  0.85283589  0.27837840  0.70798852     0.03000
C369        C  0.82988000  0.28539563  0.75113854    -0.22300
C370        C  0.81414498  0.26389194  0.78087340     0.12200
S371        S  0.80032615  0.21352705  0.80790371    -0.06000
C372        C  0.78206810  0.24030248  0.84418442    -0.09500
C373        C  0.79162514  0.26610718  0.82504454    -0.26100
S374        S  0.87603642  0.30104046  0.66799830    -0.03300
C375        C  0.89455890  0.27344099  0.63415593    -0.16700
C376        C  0.88288166  0.24821721  0.65314349    -0.14700
H377        H  0.84879771  0.20860828  0.71461909     0.20700
H378        H  0.82492983  0.30661749  0.76146810     0.16700
H379        H  0.78274033  0.28529352  0.84241952     0.19200
H380        H  0.89191284  0.22863014  0.63773984     0.12600
C381        C  0.34521164  0.21598755  0.77078268     0.16400
C382        C  0.36989059  0.20297812  0.73636065    -0.32600
C383        C  0.37541900  0.21416355  0.68617724     0.20800
C384        C  0.35666031  0.23701429  0.67062797     0.03000
C385        C  0.33065491  0.24924071  0.70420051    -0.22300
C386        C  0.32566106  0.23837733  0.75482651     0.12200
S387        S  0.33931039  0.20821397  0.83573699    -0.06000
C388        C  0.31001582  0.23528517  0.84160782    -0.09500
C389        C  0.30472178  0.24922603  0.79516244    -0.26100
S390        S  0.37135481  0.25003719  0.61167164    -0.03300
C391        C  0.40288994  0.22433132  0.60776765    -0.16700
C392        C  0.40144012  0.20641963  0.64968420    -0.14700
H393        H  0.38572710  0.18589638  0.74927661     0.20700
H394        H  0.31658572  0.26743495  0.69256032     0.16700
H395        H  0.28841331  0.26737038  0.79199191     0.19200
H396        H  0.42041797  0.19002312  0.65524748     0.12600
C397        C  0.34043711  0.22639482  0.24808062     0.16400
C398        C  0.35005833  0.21504656  0.29619317    -0.32600
C399        C  0.38212131  0.22504317  0.31961421     0.20800
C400        C  0.40342326  0.24550783  0.29635880     0.03000
C401        C  0.39423175  0.25638894  0.24796277    -0.22300
C402        C  0.36239340  0.24635308  0.22457231     0.12200
S403        S  0.30232286  0.21765237  0.21336489    -0.06000
C404        C  0.31688555  0.24074414  0.16651749    -0.09500
C405        C  0.34911151  0.25457011  0.17775395    -0.26100
S406        S  0.43992709  0.25624050  0.33204063    -0.03300
C407        C  0.42658550  0.23276298  0.37852995    -0.16700
C408        C  0.39580600  0.21720709  0.36678699    -0.14700
H409        H  0.33318207  0.19937896  0.31474573     0.20700
H410        H  0.41093817  0.27223655  0.22962673     0.16700
H411        H  0.36219590  0.26983821  0.15288399     0.19200
H412        H  0.38363323  0.20171986  0.39203579     0.15800
C413        C  0.07152192  0.26423686  0.71931500     0.16400
C414        C  0.08321751  0.25348392  0.76654580    -0.32600
C415        C  0.11211287  0.26697069  0.79160963     0.20800
C416        C  0.12959998  0.28975727  0.77016288     0.03000
C417        C  0.11772704  0.30068720  0.72260252    -0.22300
C418        C  0.08785699  0.28759024  0.69814650     0.12200
S419        S  0.03635393  0.25077456  0.68424609    -0.06000
C420        C  0.04276757  0.27724565  0.64109313    -0.09500
C421        C  0.07097778  0.29546218  0.65303936    -0.26100
S422        S  0.16423955  0.30294208  0.80792636    -0.03300
C423        C  0.15360689  0.27804529  0.85345876    -0.16700
C424        C  0.12560769  0.26027011  0.83923264    -0.14700
H425        H  0.06987840  0.23563037  0.78358662     0.20700
H426        H  0.13065997  0.31880490  0.70602870     0.16700
H427        H  0.07880600  0.31314457  0.62987859     0.19200
H428        H  0.11528844  0.24345667  0.86295956     0.12600
C429        C  0.07779336  0.29792628  0.32393937     0.16400
C430        C  0.08794168  0.30544191  0.27254817    -0.32600
C431        C  0.11733216  0.29192434  0.24854305     0.20800
C432        C  0.13696110  0.27269566  0.27540353     0.03000
C433        C  0.12679430  0.26514945  0.32696581    -0.22300
C434        C  0.09620122  0.27774665  0.35008678     0.12200
S435        S  0.04122745  0.31060452  0.35794289    -0.06000
C436        C  0.04970963  0.28778037  0.40717333    -0.09500
C437        C  0.07982881  0.27151366  0.39780293    -0.26100
S438        S  0.17104784  0.25807800  0.23853621    -0.03300
C439        C  0.15738049  0.27701141  0.18568272    -0.16700
C440        C  0.12874528  0.29435434  0.19698207    -0.14700
H441        H  0.07263875  0.32040568  0.25140600     0.20700
H442        H  0.14118127  0.24938204  0.34729281     0.16700
H443        H  0.08883038  0.25575830  0.42397469     0.19200
H444        H  0.11615636  0.30735976  0.16849363     0.12600
C445        C  0.85141657  0.11992232  0.06849088     0.16400
C446        C  0.87598462  0.10284794  0.09423217    -0.32600
C447        C  0.89473075  0.08308217  0.06346110     0.20800
C448        C  0.88924827  0.08061080  0.00958157     0.03000
C449        C  0.86486202  0.09756741  0.98405959    -0.22300
C450        C  0.84614913  0.11713336  0.01466290     0.12200
S451        S  0.82570719  0.14530973  0.09781307    -0.06000
C452        C  0.80754635  0.15199537  0.03679829    -0.09500
C453        C  0.82131529  0.13529349  0.99647898    -0.26100
S454        S  0.91464917  0.05596969  0.97868737    -0.03300
C455        C  0.93324373  0.04854102  0.03876830    -0.16700
C456        C  0.91996067  0.06461263  0.08055022    -0.14700
H457        H  0.88031991  0.10489004  0.13628820     0.20700
H458        H  0.86066773  0.09560965  0.94194278     0.16700
H459        H  0.81357065  0.13638344  0.95549438     0.19200
H460        H  0.92868576  0.06315676  0.12102288     0.12600
C461        C  0.10932934  0.10043785  0.00962368     0.16400
C462        C  0.12011461  0.12524424  0.98657513    -0.32600
C463        C  0.13786591  0.14481432  0.01855971     0.20800
C464        C  0.14581054  0.13956753  0.07074899     0.03000
C465        C  0.13482666  0.11472050  0.09395781    -0.22300
C466        C  0.11587302  0.09547740  0.06237064     0.12200
S467        S  0.08526171  0.07509893  0.97806573    -0.06000
C468        C  0.08250080  0.05797140  0.03694577    -0.09500
C469        C  0.10034833  0.07106643  0.07845760    -0.26100
S470        S  0.16757729  0.16616280  0.10274968    -0.03300
C471        C  0.16464878  0.18477019  0.04577206    -0.16700
C472        C  0.14817764  0.17083151  0.00421689    -0.14700
H473        H  0.11394791  0.12942926  0.94585285     0.20700
H474        H  0.13991547  0.11089207  0.13515171     0.16700
H475        H  0.10085867  0.06361950  0.11847363     0.19200
H476        H  0.14362011  0.17942627  0.96576830     0.12600
C477        C  0.13042572  0.89988952  0.08046763     0.16400
C478        C  0.15050942  0.87897183  0.10305912    -0.32600
C479        C  0.16355797  0.85811414  0.06937660     0.20800
C480        C  0.15725135  0.85828341  0.01553599     0.03000
C481        C  0.13816687  0.87959490  0.99279580    -0.22300
C482        C  0.12467540  0.90019709  0.02652937     0.12200
S483        S  0.10897528  0.92548007  0.11499539    -0.06000
C484        C  0.09202784  0.93669215  0.05611384    -0.09500
C485        C  0.10302984  0.92137123  0.01229921    -0.26100
S486        S  0.17207360  0.82991529  0.98205984    -0.03300
C487        C  0.18699534  0.81762741  0.04114001    -0.16700
C488        C  0.18127611  0.83498325  0.08420438    -0.14700
H489        H  0.15455849  0.87840319  0.14526897     0.20700
H490        H  0.13278066  0.87952961  0.95088711     0.16700
H491        H  0.09427483  0.92476996  0.97233881     0.19200
H492        H  0.18808938  0.83029701  0.12447164     0.12600
C493        C  0.90588107  0.89027672  0.07505400     0.16400
C494        C  0.88135883  0.87015965  0.09382642    -0.32600
C495        C  0.87494319  0.84701075  0.06146029     0.20800
C496        C  0.89237290  0.84389453  0.01283154     0.03000
C497        C  0.91646385  0.86412901  0.99380142    -0.22300
C498        C  0.92261020  0.88732865  0.02590616     0.12200
S499        S  0.91837060  0.91957821  0.10868927    -0.06000
C500        C  0.94569112  0.92811704  0.05531237    -0.09500
C501        C  0.94523900  0.90901903  0.01427344    -0.26100
S502        S  0.88267388  0.81367094  0.98087182    -0.03300
C503        C  0.85452716  0.80517216  0.03335260    -0.16700
C504        C  0.85278992  0.82494773  0.07317394    -0.14700
H505        H  0.86816401  0.87230911  0.13214703     0.20700
H506        H  0.93012467  0.86176939  0.95585204     0.16700
H507        H  0.96119553  0.91069546  0.97809456     0.19200
H508        H  0.83718749  0.82285090  0.10957347     0.12600
C509        C  0.59971799  0.40634867  0.93428830     0.16400
C510        C  0.61832581  0.38285610  0.91621292    -0.32600
C511        C  0.63567667  0.36685166  0.95397594     0.20800
C512        C  0.63451570  0.37427029  0.00702499     0.03000
C513        C  0.61629588  0.39766163  0.02487866    -0.22300
C514        C  0.59889097  0.41340273  0.98747112     0.12200
S515        S  0.57561242  0.42807491  0.89588252    -0.06000
C516        C  0.56431047  0.44662737  0.95230184    -0.09500
C517        C  0.57885858  0.43634468  0.99797580    -0.26100
S518        S  0.65592792  0.35245563  0.04726912    -0.03300
C519        C  0.66692702  0.33255495  0.99264559    -0.16700
C520        C  0.65450697  0.34279209  0.94526700    -0.14700
H521        H  0.61881494  0.37712545  0.87476817     0.20700
H522        H  0.61529799  0.40315294  0.06645355     0.16700
H523        H  0.57439157  0.44488973  0.03719763     0.19200
H524        H  0.65852049  0.33306137  0.90699481     0.12600
C525        C  0.38064132  0.41151813  0.00125844     0.16400
C526        C  0.36424823  0.38908895  0.02671162    -0.32600
C527        C  0.34221934  0.37129288  0.99657416     0.20800
C528        C  0.33584839  0.37598280  0.94369422     0.03000
C529        C  0.35246352  0.39843862  0.91808259    -0.22300
C530        C  0.37537293  0.41589895  0.94797921     0.12200
S531        S  0.40964728  0.43448622  0.03070478    -0.06000
C532        C  0.41574938  0.44995775  0.97042784    -0.09500
C533        C  0.39569440  0.43793765  0.92986531    -0.26100
S534        S  0.30913201  0.35127008  0.91387982    -0.03300
C535        C  0.30773977  0.33410163  0.97281638    -0.16700
C536        C  0.32642274  0.34723012  0.01333892    -0.14700
H537        H  0.36927201  0.38525270  0.06793282     0.20700
H538        H  0.34849342  0.40172344  0.87641701     0.16700
H539        H  0.39651265  0.44458074  0.88928349     0.19200
H540        H  0.32950257  0.33899653  0.05244573     0.12600
C541        C  0.39124842  0.61319580  0.94476033     0.16400
C542        C  0.37126385  0.63556334  0.92735593    -0.32600
C543        C  0.36794668  0.65834366  0.96173115     0.20800
C544        C  0.38387988  0.65878412  0.01103146     0.03000
C545        C  0.40302664  0.63626868  0.02878937    -0.22300
C546        C  0.40626798  0.61357186  0.99463845     0.12200
S547        S  0.40113839  0.58440148  0.90803043    -0.06000
C548        C  0.42534583  0.57274513  0.96086217    -0.09500
C549        C  0.42530433  0.59037658  0.00429307    -0.26100
S550        S  0.37850303  0.68860677  0.04600869    -0.03300
C551        C  0.35390798  0.70069025  0.99420948    -0.16700
C552        C  0.35027738  0.68231578  0.95204910    -0.14700
H553        H  0.35947240  0.63544890  0.88843224     0.20700
H554        H  0.41549013  0.63663061  0.06727440     0.16700
H555        H  0.43996834  0.58699985  0.04032853     0.19200
H556        H  0.33584789  0.68640141  0.91612543     0.12600
C557        C  0.61448018  0.60440395  0.93372367     0.16400
C558        C  0.64109243  0.62384574  0.91772670    -0.32600
C559        C  0.65206666  0.64394837  0.95503212     0.20800
C560        C  0.63691566  0.64473697  0.00553951     0.03000
C561        C  0.61103198  0.62517759  0.02161104    -0.22300
C562        C  0.60039267  0.60511004  0.98477077     0.12200
S563        S  0.59606673  0.57861775  0.89492080    -0.06000
C564        C  0.57006544  0.56858394  0.94888495    -0.09500
C565        C  0.57531170  0.58471399  0.99364125    -0.26100
S566        S  0.65113883  0.67164519  0.04395538    -0.03300
C567        C  0.67837642  0.68197867  0.99195825    -0.16700
C568        C  0.67656925  0.66521474  0.94723932    -0.14700
H569        H  0.65235241  0.62354628  0.87797657     0.20700
H570        H  0.59923493  0.62580827  0.06105344     0.16700
H571        H  0.56102137  0.58188552  0.03095882     0.19200
H572        H  0.69098514  0.66915124  0.91042892     0.12600
loop_ 
_geom_bond_atom_site_label_1 
_geom_bond_atom_site_label_2 
_geom_bond_distance 
_geom_bond_site_symmetry_2 
_ccdc_geom_bond_type 
O1           Ni9   1.939       .  S
O1           C11   1.284       .  A
O2           Ni9   1.936       .  S
O2           C12   1.285       .  A
O3           Ni9   1.930       .  S
O3           C13   1.283       .  A
O4           Ni9   1.931       .  S
O4           C14   1.283       .  A
O5          Ni10   1.921   1_556  S
O5           C14   1.283       .  A
O6          Ni10   1.918       .  S
O6           C13   1.282   1_554  A
O7          Ni10   1.904       .  S
O7           C12   1.278   1_554  A
O8          Ni10   1.899   1_556  S
O8           C11   1.278       .  A
Ni9         Ni10   2.387   1_556  S
C11         C564   1.475       .  S
C12         C532   1.475       .  S
C13         C548   1.479       .  S
C14         C516   1.484       .  S
O15         Ni23   1.907   1_545  S
O15          C25   1.279       .  A
O16         Ni23   1.905   1_655  S
O16          C26   1.279       .  A
O17         Ni23   1.925   1_645  S
O17          C27   1.283       .  A
O18         Ni23   1.920       .  S
O18          C28   1.282       .  A
O19         Ni24   1.928       .  S
O19          C28   1.283       .  A
O20         Ni24   1.934   1_645  S
O20          C27   1.284       .  A
O21         Ni24   1.928   1_655  S
O21          C26   1.283       .  A
O22         Ni24   1.927   1_545  S
O22          C25   1.283       .  A
Ni23        Ni24   2.388       .  S
C25         C468   1.472       .  S
C26         C500   1.470       .  S
C27         C455   1.488       .  S
C28         C484   1.479       .  S
O29         Ni35   1.929   1_556  S
O29          C50   1.273       .  A
O30         Ni53   1.898       .  S
O30          C39   1.264       .  A
O31         Ni35   1.905       .  S
O31         Ni53   1.907       .  S
O31         Ni47   1.918   1_554  S
O31          H54   0.967       .  S
C32          O49   1.279       .  A
C32          O41   1.277       .  A
C32         C388   1.471       .  S
O33         Ni52   1.922       .  S
O33          C39   1.270       .  A
O34         Ni52   1.906   1_556  S
O34          C36   1.267       .  A
Ni35         O38   1.936       .  S
Ni35         O40   1.911       .  S
C36          O46   1.271       .  A
C36         C535   1.470       .  S
O37         Ni53   1.911       .  S
O37          C43   1.273       .  A
O38          C43   1.279       .  A
C39         C404   1.459       .  S
O40          C42   1.268       .  A
O41         Ni52   1.921   1_556  S
C42          O48   1.270       .  A
C42         C471   1.470       .  S
C43         C439   1.474       .  S
H44          O45   0.965   1_556  S
O45         Ni53   1.904       .  S
O45         Ni47   1.898   1_554  S
O45         Ni52   1.895       .  S
O46         Ni47   1.933       .  S
Ni47         O51   1.900       .  S
Ni47         O49   1.929       .  S
O48         Ni53   1.930       .  S
C50          O51   1.265       .  A
C50         C423   1.462       .  S
O55         Ni61   1.915       .  S
O55          C76   1.267       .  A
O56         Ni79   1.932       .  S
O56          C65   1.276       .  A
O57         Ni61   1.889       .  S
O57         Ni79   1.905       .  S
O57         Ni73   1.903   1_554  S
O57          H80   0.966       .  S
C58          O75   1.272       .  A
C58          O67   1.278       .  A
C58         C343   1.466       .  S
O59         Ni78   1.936       .  S
O59          C65   1.275   1_556  A
O60         Ni78   1.897       .  S
O60          C62   1.269       .  A
Ni61         O64   1.905       .  S
Ni61         O66   1.902       .  S
C62          O72   1.281       .  A
C62         C372   1.485       .  S
O63         Ni79   1.920       .  S
O63          C69   1.279       .  A
O64          C69   1.275       .  A
C65         C452   1.494       .  S
O66          C68   1.268       .  A
O67         Ni78   1.927       .  S
C68          O74   1.277       .  A
C68         C327   1.485       .  S
C69         C356   1.463       .  S
H70          O71   0.966       .  S
O71         Ni79   1.915       .  S
O71         Ni73   1.918   1_554  S
O71         Ni78   1.895   1_554  S
O72         Ni73   1.957       .  S
Ni73         O77   1.943       .  S
Ni73         O75   1.899       .  S
O74         Ni79   1.952       .  S
C76          O77   1.275   1_554  A
C76         C519   1.486   1_554  S
O81         Ni87   1.919   1_556  S
O81         C102   1.269       .  A
O82        Ni105   1.910       .  S
O82          C91   1.264       .  A
O83         Ni87   1.918       .  S
O83        Ni105   1.920       .  S
O83         Ni99   1.937   1_554  S
O83         H106   0.966       .  S
C84         O101   1.274       .  A
C84          O93   1.276       .  A
C84         C263   1.471       .  S
O85        Ni104   1.934       .  S
O85          C91   1.271       .  A
O86        Ni104   1.902       .  S
O86          C88   1.267   1_554  A
Ni87         O90   1.931       .  S
Ni87         O92   1.907       .  S
C88          O98   1.270       .  A
C88         C567   1.465       .  S
O89        Ni105   1.907       .  S
O89          C95   1.266       .  A
O90          C95   1.271       .  A
C91         C276   1.468       .  S
O92          C94   1.272       .  A
O93        Ni104   1.931   1_556  S
C94         O100   1.277       .  A
C94         C503   1.470       .  S
C95         C311   1.471       .  S
H96          O97   0.966       .  S
O97        Ni105   1.906       .  S
O97         Ni99   1.910   1_554  S
O97        Ni104   1.911       .  S
O98         Ni99   1.926       .  S
Ni99        O103   1.905       .  S
Ni99        O101   1.919       .  S
O100       Ni105   1.942       .  S
C102        O103   1.267       .  A
C102        C295   1.467       .  S
O107       Ni113   1.930       .  S
O107        C128   1.271       .  A
O108       Ni131   1.913       .  S
O108        C117   1.267       .  A
O109       Ni113   1.917       .  S
O109       Ni131   1.912   1_554  S
O109       Ni125   1.906       .  S
O109        H132   0.966       .  S
C110        O127   1.262       .  A
C110        O119   1.269       .  A
C110        C228   1.464       .  S
O111       Ni130   1.911   1_556  S
O111        C117   1.268       .  A
O112       Ni130   1.906       .  S
O112        C114   1.271       .  A
Ni113       O116   1.927   1_554  S
Ni113       O118   1.910       .  S
C114        O124   1.278       .  A
C114        C487   1.471       .  S
O115       Ni131   1.899       .  S
O115        C121   1.268       .  A
O116        C121   1.273       .  A
C117        C247   1.472       .  S
O118        C120   1.270   1_554  A
O119       Ni130   1.931       .  S
C120        O126   1.274       .  A
C120        C551   1.476       .  S
C121        C212   1.464       .  S
H122        O123   0.966       .  S
O123       Ni131   1.932   1_554  S
O123       Ni125   1.914       .  S
O123       Ni130   1.918       .  S
O124       Ni125   1.950       .  S
Ni125       O129   1.891       .  S
Ni125       O127   1.899       .  S
O126       Ni131   1.939       .  S
C128        O129   1.262       .  A
C128        C196   1.458       .  S
O133       Ni141   1.929   1_455  S
O133        C143   1.283       .  A
O134       Ni141   1.926       .  S
O134        C144   1.284       .  A
O135       Ni141   1.897       .  S
O135        C145   1.278       .  A
O136       Ni141   1.892   1_455  S
O136        C146   1.276       .  A
O137       Ni142   1.924   1_455  S
O137        C146   1.282       .  A
O138       Ni142   1.920       .  S
O138        C145   1.282       .  A
O139       Ni142   1.928       .  S
O139        C144   1.282       .  A
O140       Ni142   1.917   1_455  S
O140        C143   1.281       .  A
Ni141      Ni142   2.390       .  S
C143        C436   1.472       .  S
C144        C375   1.484       .  S
C145        C359   1.463       .  S
C146        C420   1.456       .  S
O147       Ni155   1.916   1_655  S
O147        C157   1.280       .  A
O148       Ni155   1.917       .  S
O148        C158   1.281       .  A
O149       Ni155   1.919       .  S
O149        C159   1.281       .  A
O150       Ni155   1.919   1_655  S
O150        C160   1.281       .  A
O151       Ni156   1.920   1_655  S
O151        C160   1.281       .  A
O152       Ni156   1.922       .  S
O152        C159   1.281       .  A
O153       Ni156   1.917       .  S
O153        C158   1.281       .  A
O154       Ni156   1.918   1_655  S
O154        C157   1.281       .  A
Ni155      Ni156   2.392       .  S
C157        C292   1.464       .  S
C158        C231   1.468       .  S
C159        C244   1.466       .  S
C160        C308   1.469       .  S
O161       Ni169   1.915       .  S
O161        C171   1.281       .  A
O162       Ni169   1.911       .  S
O162        C172   1.280       .  A
O163       Ni169   1.912       .  S
O163        C173   1.280       .  A
O164       Ni169   1.922       .  S
O164        C174   1.282       .  A
O165       Ni170   1.921       .  S
O165        C174   1.282       .  A
O166       Ni170   1.921       .  S
O166        C173   1.282       .  A
O167       Ni170   1.916       .  S
O167        C172   1.280       .  A
O168       Ni170   1.922       .  S
O168        C171   1.281       .  A
Ni169      Ni170   2.390       .  S
C171        C279   1.473       .  S
C172        C215   1.460       .  S
C173        C199   1.468       .  S
C174        C260   1.476       .  S
O175       Ni183   1.930       .  S
O175        C185   1.283       .  A
O176       Ni183   1.936       .  S
O176        C186   1.285       .  A
O177       Ni183   1.910       .  S
O177        C187   1.279       .  A
O178       Ni183   1.909       .  S
O178        C188   1.278       .  A
O179       Ni184   1.902       .  S
O179        C188   1.278       .  A
O180       Ni184   1.910       .  S
O180        C187   1.280       .  A
O181       Ni184   1.915       .  S
O181        C186   1.281       .  A
O182       Ni184   1.915       .  S
O182        C185   1.280       .  A
Ni183      Ni184   2.389       .  S
C185        C391   1.472       .  S
C186        C324   1.481       .  S
C187        C340   1.463       .  S
C188        C407   1.450       .  S
C189        S195   1.707       .  A
C189        C194   1.388       .  A
C189        C190   1.402       .  A
C190        C191   1.403       .  A
C190        H201   1.083       .  S
C191        C200   1.370       .  A
C191        C192   1.387       .  A
C192        S198   1.704       .  A
C192        C193   1.398       .  A
C193        C194   1.399       .  A
C193        H202   1.083       .  S
C194        C197   1.367       .  A
S195        C196   1.720       .  A
C196        C197   1.381       .  A
C197        H203   1.083       .  S
S198        C199   1.719       .  A
C199        C200   1.388       .  A
C200        H204   1.083       .  S
C205        S211   1.704       .  A
C205        C210   1.388       .  A
C205        C206   1.400       .  A
C206        C207   1.400       .  A
C206        H217   1.083       .  S
C207        C216   1.368       .  A
C207        C208   1.388       .  A
C208        S214   1.704       .  A
C208        C209   1.399       .  A
C209        C210   1.400       .  A
C209        H218   1.083       .  S
C210        C213   1.367       .  A
S211        C212   1.722       .  A
C212        C213   1.383       .  A
C213        H219   1.083       .  S
S214        C215   1.720       .  A
C215        C216   1.382       .  A
C216        H220   1.083       .  S
C221        S227   1.706       .  A
C221        C226   1.388       .  A
C221        C222   1.400       .  A
C222        C223   1.401       .  A
C222        H233   1.083       .  S
C223        C232   1.369       .  A
C223        C224   1.387       .  A
C224        S230   1.709       .  A
C224        C225   1.403       .  A
C225        C226   1.403       .  A
C225        H234   1.083       .  S
C226        C229   1.372       .  A
S227        C228   1.719       .  A
C228        C229   1.385       .  A
C229        H235   1.083       .  S
S230        C231   1.723       .  A
C231        C232   1.385       .  A
C232        H236   1.083       .  S
C237        S243   1.706       .  A
C237        C242   1.388       .  A
C237        C238   1.398       .  A
C238        C239   1.400       .  A
C238        H249   1.083       .  S
C239        C248   1.365       .  A
C239        C240   1.386       .  A
C240        S246   1.714       .  A
C240        C241   1.405       .  A
C241        C242   1.407       .  A
C241        H250   1.083       .  S
C242        C245   1.374       .  A
S243        C244   1.718       .  A
C244        C245   1.387       .  A
C245        H251   1.083       .  S
S246        C247   1.725       .  A
C247        C248   1.386       .  A
C248        H252   1.083       .  S
C253        S259   1.710       .  A
C253        C258   1.387       .  A
C253        C254   1.405       .  A
C254        C255   1.405       .  A
C254        H265   1.083       .  S
C255        C264   1.375       .  A
C255        C256   1.387       .  A
C256        S262   1.709       .  A
C256        C257   1.403       .  A
C257        C258   1.403       .  A
C257        H266   1.083       .  S
C258        C261   1.373       .  A
S259        C260   1.725       .  A
C260        C261   1.387       .  A
C261        H267   1.083       .  S
S262        C263   1.721       .  A
C263        C264   1.388       .  A
C264        H268   1.083       .  S
C269        S275   1.716       .  A
C269        C274   1.387       .  A
C269        C270   1.407       .  A
C270        C271   1.408       .  A
C270        H281   1.083       .  S
C271        C280   1.375       .  A
C271        C272   1.387       .  A
C272        S278   1.703       .  A
C272        C273   1.397       .  A
C273        C274   1.399       .  A
C273        H282   1.083       .  S
C274        C277   1.366       .  A
S275        C276   1.724       .  A
C276        C277   1.382       .  A
C277        H283   1.083       .  S
S278        C279   1.721       .  A
C279        C280   1.390       .  A
C280        H284   1.083       .  S
C285        S291   1.709       .  A
C285        C290   1.388       .  A
C285        C286   1.402       .  A
C286        C287   1.403       .  A
C286        H297   1.083       .  S
C287        C296   1.371       .  A
C287        C288   1.388       .  A
C288        S294   1.704       .  A
C288        C289   1.400       .  A
C289        C290   1.400       .  A
C289        H298   1.083       .  S
C290        C293   1.368       .  A
S291        C292   1.721       .  A
C292        C293   1.383       .  A
C293        H299   1.083       .  S
S294        C295   1.722       .  A
C295        C296   1.385       .  A
C296        H300   1.083       .  S
C301        S307   1.705       .  A
C301        C306   1.387       .  A
C301        C302   1.399       .  A
C302        C303   1.400       .  A
C302        H313   1.083       .  S
C303        C312   1.368       .  A
C303        C304   1.387       .  A
C304        S310   1.714       .  A
C304        C305   1.406       .  A
C305        C306   1.407       .  A
C305        H314   1.083       .  S
C306        C309   1.375       .  A
S307        C308   1.719       .  A
C308        C309   1.389       .  A
C309        H315   1.083       .  S
S310        C311   1.725       .  A
C311        C312   1.384       .  A
C312        H316   1.083       .  S
C317        S323   1.705       .  A
C317        C322   1.386       .  A
C317        C318   1.400       .  A
C318        C319   1.401       .  A
C318        H329   1.083       .  S
C319        C328   1.368       .  A
C319        C320   1.385       .  A
C320        S326   1.722       .  A
C320        C321   1.410       .  A
C321        C322   1.411       .  A
C321        H330   1.083       .  S
C322        C325   1.380       .  A
S323        C324   1.723       .  A
C324        C325   1.393       .  A
C325        H331   1.083       .  S
S326        C327   1.728       .  A
C327        C328   1.389       .  A
C328        H332   1.083       .  S
C333        S339   1.703       .  A
C333        C338   1.387       .  A
C333        C334   1.398       .  A
C334        C335   1.399       .  A
C334        H345   1.083       .  S
C335        C344   1.366       .  A
C335        C336   1.387       .  A
C336        S342   1.701       .  A
C336        C337   1.398       .  A
C337        C338   1.399       .  A
C337        H346   1.083       .  S
C338        C341   1.366       .  A
S339        C340   1.721       .  A
C340        C341   1.384       .  A
C341        H347   1.083       .  S
S342        C343   1.723       .  A
C343        C344   1.385       .  A
C344        H348   1.083       .  S
C349        S355   1.704       .  A
C349        C354   1.387       .  A
C349        C350   1.396       .  A
C350        C351   1.399       .  A
C350        H361   1.083       .  S
C351        C360   1.360       .  A
C351        C352   1.387       .  A
C352        S358   1.708       .  A
C352        C353   1.398       .  A
C353        C354   1.401       .  A
C353        H362   1.083       .  S
C354        C357   1.362       .  A
S355        C356   1.720       .  A
C356        C357   1.387       .  A
C357        H363   1.083       .  S
S358        C359   1.721       .  A
C359        C360   1.384       .  A
C360        H364   1.083       .  S
C365        S371   1.698       .  A
C365        C370   1.387       .  A
C365        C366   1.400       .  A
C366        C367   1.399       .  A
C366        H377   1.083       .  S
C367        C376   1.372       .  A
C367        C368   1.386       .  A
C368        S374   1.716       .  A
C368        C369   1.412       .  A
C369        C370   1.411       .  A
C369        H378   1.083       .  S
C370        C373   1.385       .  A
S371        C372   1.726       .  A
C372        C373   1.393       .  A
C373        H379   1.083       .  S
S374        C375   1.730       .  A
C375        C376   1.386       .  A
C376        H380   1.083       .  S
C381        S387   1.704       .  A
C381        C386   1.388       .  A
C381        C382   1.402       .  A
C382        C383   1.402       .  A
C382        H393   1.083       .  S
C383        C392   1.373       .  A
C383        C384   1.387       .  A
C384        S390   1.708       .  A
C384        C385   1.404       .  A
C385        C386   1.404       .  A
C385        H394   1.083       .  S
C386        C389   1.375       .  A
S387        C388   1.723       .  A
C388        C389   1.387       .  A
C389        H395   1.083       .  S
S390        C391   1.724       .  A
C391        C392   1.386       .  A
C392        H396   1.083       .  S
C397        S403   1.707       .  A
C397        C402   1.387       .  A
C397        C398   1.400       .  A
C398        C399   1.401       .  A
C398        H409   1.083       .  S
C399        C408   1.366       .  A
C399        C400   1.389       .  A
C400        S406   1.697       .  A
C400        C401   1.393       .  A
C401        C402   1.394       .  A
C401        H410   1.083       .  S
C402        C405   1.358       .  A
S403        C404   1.721       .  A
C404        C405   1.381       .  A
C405        H411   1.084       .  S
S406        C407   1.715       .  A
C407        C408   1.382       .  A
C408        H412   1.083       .  S
C413        S419   1.694       .  A
C413        C418   1.389       .  A
C413        C414   1.391       .  A
C414        C415   1.393       .  A
C414        H425   1.083       .  S
C415        C424   1.358       .  A
C415        C416   1.387       .  A
C416        S422   1.712       .  A
C416        C417   1.404       .  A
C417        C418   1.405       .  A
C417        H426   1.083       .  S
C418        C421   1.372       .  A
S419        C420   1.716       .  A
C420        C421   1.385       .  A
C421        H427   1.083       .  S
S422        C423   1.724       .  A
C423        C424   1.380       .  A
C424        H428   1.084       .  S
C429        S435   1.704       .  A
C429        C434   1.387       .  A
C429        C430   1.401       .  A
C430        C431   1.401       .  A
C430        H441   1.083       .  S
C431        C440   1.372       .  A
C431        C432   1.387       .  A
C432        S438   1.710       .  A
C432        C433   1.406       .  A
C433        C434   1.406       .  A
C433        H442   1.083       .  S
C434        C437   1.377       .  A
S435        C436   1.721       .  A
C436        C437   1.388       .  A
C437        H443   1.083       .  S
S438        C439   1.725       .  A
C439        C440   1.386       .  A
C440        H444   1.083       .  S
C445        S451   1.724       .  A
C445        C450   1.385       .  A
C445        C446   1.413       .  A
C446        C447   1.413       .  A
C446        H457   1.083       .  S
C447        C456   1.383       .  A
C447        C448   1.386       .  A
C448        S454   1.709   1_554  A
C448        C449   1.402   1_554  A
C449        C450   1.404   1_556  A
C449        H458   1.083       .  S
C450        C453   1.373   1_554  A
S451        C452   1.731       .  A
C452        C453   1.392   1_554  A
C453        H459   1.083       .  S
S454        C455   1.724   1_556  A
C455        C456   1.395       .  A
C456        H460   1.083       .  S
C461        S467   1.702   1_554  A
C461        C466   1.387       .  A
C461        C462   1.400   1_554  A
C462        C463   1.400   1_556  A
C462        H473   1.083       .  S
C463        C472   1.371       .  A
C463        C464   1.387       .  A
C464        S470   1.711       .  A
C464        C465   1.405       .  A
C465        C466   1.405       .  A
C465        H474   1.083       .  S
C466        C469   1.375       .  A
S467        C468   1.722   1_556  A
C468        C469   1.388       .  A
C469        H475   1.083       .  S
S470        C471   1.723       .  A
C471        C472   1.385       .  A
C472        H476   1.083   1_554  S
C477        S483   1.711       .  A
C477        C482   1.386       .  A
C477        C478   1.405       .  A
C478        C479   1.405       .  A
C478        H489   1.083       .  S
C479        C488   1.374       .  A
C479        C480   1.387       .  A
C480        S486   1.706   1_554  A
C480        C481   1.401   1_554  A
C481        C482   1.402   1_556  A
C481        H490   1.083       .  S
C482        C485   1.371       .  A
S483        C484   1.726       .  A
C484        C485   1.388       .  A
C485        H491   1.083   1_554  S
S486        C487   1.722   1_556  A
C487        C488   1.387       .  A
C488        H492   1.083       .  S
C493        S499   1.712       .  A
C493        C498   1.387       .  A
C493        C494   1.402       .  A
C494        C495   1.404       .  A
C494        H505   1.083       .  S
C495        C504   1.370       .  A
C495        C496   1.387       .  A
C496        S502   1.706   1_554  A
C496        C497   1.399   1_554  A
C497        C498   1.401   1_556  A
C497        H506   1.083       .  S
C498        C501   1.365       .  A
S499        C500   1.722       .  A
C500        C501   1.386       .  A
C501        H507   1.083   1_554  S
S502        C503   1.722   1_556  A
C503        C504   1.387       .  A
C504        H508   1.083       .  S
C509        S515   1.717       .  A
C509        C514   1.386       .  A
C509        C510   1.413       .  A
C510        C511   1.411       .  A
C510        H521   1.083       .  S
C511        C520   1.387       .  A
C511        C512   1.387   1_556  A
C512        S518   1.697       .  A
C512        C513   1.400       .  A
C513        C514   1.399   1_554  A
C513        H522   1.083       .  S
C514        C517   1.372       .  A
S515        C516   1.730       .  A
C516        C517   1.387       .  A
C517        H523   1.083   1_556  S
S518        C519   1.726   1_554  A
C519        C520   1.394       .  A
C520        H524   1.082       .  S
C525        S531   1.702       .  A
C525        C530   1.387   1_554  A
C525        C526   1.400       .  A
C526        C527   1.400   1_554  A
C526        H537   1.083       .  S
C527        C536   1.370   1_556  A
C527        C528   1.387       .  A
C528        S534   1.713       .  A
C528        C529   1.406       .  A
C529        C530   1.406       .  A
C529        H538   1.083       .  S
C530        C533   1.377       .  A
S531        C532   1.724   1_554  A
C532        C533   1.389       .  A
C533        H539   1.083       .  S
S534        C535   1.723       .  A
C535        C536   1.385   1_556  A
C536        H540   1.083       .  S
C541        S547   1.715       .  A
C541        C546   1.386       .  A
C541        C542   1.407       .  A
C542        C543   1.408       .  A
C542        H553   1.083       .  S
C543        C552   1.376       .  A
C543        C544   1.387   1_556  A
C544        S550   1.706       .  A
C544        C545   1.400       .  A
C545        C546   1.401   1_554  A
C545        H554   1.083       .  S
C546        C549   1.369   1_556  A
S547        C548   1.727       .  A
C548        C549   1.386   1_556  A
C549        H555   1.083       .  S
S550        C551   1.722   1_554  A
C551        C552   1.390       .  A
C552        H556   1.083       .  S
C557        S563   1.719       .  A
C557        C562   1.386       .  A
C557        C558   1.408       .  A
C558        C559   1.409       .  A
C558        H569   1.083       .  S
C559        C568   1.374       .  A
C559        C560   1.388   1_556  A
C560        S566   1.701       .  A
C560        C561   1.394       .  A
C561        C562   1.397   1_554  A
C561        H570   1.083       .  S
C562        C565   1.361       .  A
S563        C564   1.727       .  A
C564        C565   1.384       .  A
C565        H571   1.083   1_556  S
S566        C567   1.717   1_554  A
C567        C568   1.389       .  A
C568        H572   1.083       .  S
