geometry optimzed in LAMMPS
_audit_creation_date              2020-11-30 
_audit_creation_method            'lammps2cif' 
_symmetry_space_group_name_H-M    'P1' 
_symmetry_Int_Tables_number       1 
_symmetry_cell_setting            triclinic 
loop_ 
_symmetry_equiv_pos_as_xyz 
  x,y,z 
_cell_length_a                    29.93680799 
_cell_length_b                    29.898218702799497 
_cell_length_c                    41.222398709858794 
_cell_angle_alpha                 90.1797198177258 
_cell_angle_beta                  89.92334970414429 
_cell_angle_gamma                 120.27342786317185 
loop_ 
_atom_site_label 
_atom_site_type_symbol 
_atom_site_fract_x 
_atom_site_fract_y 
_atom_site_fract_z 
_atom_site_charge 
O1          O  0.27124319  0.61140400  0.21015448    -0.80700
C2          C  0.44243150  0.73452382  0.29324304     0.98600
O3          O  0.43426516  0.69656761  0.27562528    -0.69800
O4          O  0.34688461  0.61008429  0.28701220    -0.73400
Al5        Al  0.37886958  0.64888866  0.24883405     1.49000
C6          C  0.29880686  0.58250551  0.29177807     0.93900
O7          O  0.26899444  0.67689010  0.28835627    -0.79700
O8          O  0.34622705  0.75861742  0.21368303    -0.73200
Al9        Al  0.27485159  0.64674682  0.24940674     1.90100
O10         O  0.32851312  0.75717524  0.27900750    -0.72300
O11         O  0.43518332  0.76196617  0.22582258    -0.72100
O12         O  0.41386698  0.75419616  0.29097461    -0.77800
O13         O  0.41522572  0.68366341  0.21060685    -0.76000
O14         O  0.34376875  0.68251350  0.25010424    -1.12100
O15         O  0.33156541  0.59340045  0.22162498    -0.71300
C16         C  0.29266115  0.58497943  0.20510397     0.99400
C17         C  0.28892547  0.72450590  0.29432686     0.95800
Al18       Al  0.37784339  0.75187268  0.25215660     1.55600
O19         O  0.26760855  0.59038288  0.27554511    -0.75900
C20         C  0.44391093  0.73217284  0.20855273     1.00000
C21         C  0.29825186  0.73586403  0.20788463     0.94800
O22         O  0.26734932  0.69537488  0.22327432    -0.81300
C23         C  0.37070899  0.18559325  0.12590384     0.87600
C24         C  0.32939768  0.12850154  0.13176788    -0.52700
C25         C  0.28554583  0.11073511  0.11365251     0.10500
C26         C  0.28720278  0.15150147  0.09026870     0.21400
C27         C  0.38053960  0.18665794  0.08907947    -0.53400
C28         C  0.33696729  0.16915536  0.07043169     0.10600
C29         C  0.34239098  0.21599234  0.13013753    -0.52900
C30         C  0.29909179  0.19858114  0.11147454     0.11200
H31         H  0.33617903  0.10150084  0.14524257     0.15700
H32         H  0.25177909  0.13718391  0.07525492     0.01400
H33         H  0.41852549  0.20005554  0.07866371     0.16000
H34         H  0.35647470  0.24971223  0.14582721     0.15800
C35         C  0.79168209  0.60063505  0.37725740     0.87600
C36         C  0.84962904  0.63525893  0.36942088    -0.52700
C37         C  0.87492131  0.67892030  0.38816757     0.10500
C38         C  0.83917176  0.68584453  0.41192253     0.21400
C39         C  0.78982858  0.59156048  0.41407331    -0.53400
C40         C  0.81431573  0.63592515  0.43219166     0.10600
C41         C  0.77049641  0.63773173  0.37270895    -0.52900
C42         C  0.79460157  0.68161692  0.39116111     0.11200
H43         H  0.86972901  0.62518940  0.35149942     0.15700
H44         H  0.85920249  0.72172302  0.42677491     0.01400
H45         H  0.76998326  0.55323142  0.42485597     0.16000
H46         H  0.73953818  0.63128188  0.35637243     0.15800
C47         C  0.37644014  0.17803290  0.37599387     0.87600
C48         C  0.34731028  0.20759598  0.37023584    -0.52700
C49         C  0.30342641  0.19070134  0.38829211     0.10500
C50         C  0.29057309  0.14317695  0.40927457     0.21400
C51         C  0.38375258  0.17916843  0.41298363    -0.53400
C52         C  0.33900776  0.16119251  0.43039179     0.10600
C53         C  0.33517881  0.12169049  0.36807485    -0.52900
C54         C  0.29069854  0.10287079  0.38579645     0.11200
H55         H  0.36054667  0.24001729  0.35369813     0.15700
H56         H  0.25434322  0.12843710  0.42350338     0.01400
H57         H  0.42136285  0.19433406  0.42438961     0.16000
H58         H  0.34029208  0.09781953  0.35039244     0.15800
C59         C  0.18281420  0.80343681  0.37487736     0.87600
C60         C  0.19940752  0.85994141  0.36671325    -0.52700
C61         C  0.17590489  0.88044785  0.38507876     0.10500
C62         C  0.13598524  0.84139575  0.40932809     0.21400
C63         C  0.19120950  0.80341477  0.41162822    -0.53400
C64         C  0.16682453  0.82317237  0.42964857     0.10600
C65         C  0.12384534  0.77527053  0.37020022    -0.52900
C66         C  0.09903190  0.79368961  0.38889780     0.11200
H67         H  0.22894616  0.88267674  0.34893698     0.15700
H68         H  0.11610856  0.85727400  0.42409448     0.01400
H69         H  0.21409956  0.78845415  0.42245758     0.16000
H70         H  0.10267910  0.74413331  0.35301048     0.15800
C71         C  0.19751716  0.81781834  0.12461954     0.87600
C72         C  0.13872384  0.78722410  0.13098863    -0.52700
C73         C  0.11067003  0.80215393  0.11257044     0.10500
C74         C  0.14409722  0.84843632  0.09039619     0.21400
C75         C  0.20297488  0.81468767  0.08766231    -0.53400
C76         C  0.17505368  0.83061186  0.06978012     0.10600
C77         C  0.21160554  0.87428878  0.13110032    -0.52900
C78         C  0.18432687  0.89057609  0.11288593     0.11200
H79         H  0.12039535  0.75591567  0.14840656     0.15700
H80         H  0.12162177  0.86151869  0.07586066     0.01400
H81         H  0.22613296  0.80008850  0.07666842     0.16000
H82         H  0.24042303  0.89983818  0.14840566     0.15800
C83         C  0.80370783  0.60750219  0.12813948     0.87600
C84         C  0.78304025  0.64509846  0.13227487    -0.52700
C85         C  0.80627105  0.68814167  0.11318220     0.10500
C86         C  0.84915246  0.69025684  0.09140801     0.21400
C87         C  0.79744554  0.59588097  0.09135942    -0.53400
C88         C  0.82132050  0.63904703  0.07219323     0.10600
C89         C  0.86216947  0.64063229  0.13336421    -0.52900
C90         C  0.88639779  0.68341176  0.11402470     0.11200
H91         H  0.74848581  0.63621304  0.14565749     0.15700
H92         H  0.86853110  0.72509425  0.07572240     0.01400
H93         H  0.77494336  0.55709696  0.08134087     0.16000
H94         H  0.88306134  0.62979213  0.15012392     0.15800
C95         C  0.63058071  0.81908553  0.12822934     0.87600
C96         C  0.67109052  0.87670289  0.13351413    -0.52700
C97         C  0.71415245  0.89478877  0.11443709     0.10500
C98         C  0.71288761  0.85340624  0.09153062     0.21400
C99         C  0.61950118  0.81657563  0.09153062    -0.53400
C100        C  0.66231836  0.83365774  0.07243630     0.10600
C101        C  0.66017296  0.79004342  0.13244811    -0.52900
C102        C  0.70285245  0.80741290  0.11313610     0.11200
H103        H  0.66419405  0.90290091  0.14805488     0.15700
H104        H  0.74772774  0.86789411  0.07592766     0.01400
H105        H  0.58126766  0.80259871  0.08138270     0.16000
H106        H  0.64710064  0.75694367  0.14844931     0.15800
C107        C  0.20591499  0.39552397  0.37252054     0.87600
C108        C  0.14818601  0.36032582  0.36456019    -0.52700
C109        C  0.12299417  0.31690641  0.38324944     0.10500
C110        C  0.15906610  0.31047003  0.40718624     0.21400
C111        C  0.20786907  0.40481994  0.40929433    -0.53400
C112        C  0.18367942  0.36064619  0.42744679     0.10600
C113        C  0.22770245  0.35896874  0.36794063    -0.52900
C114        C  0.20454368  0.31523020  0.38665744     0.11200
H115        H  0.12799744  0.36953124  0.34630278     0.15700
H116        H  0.13952576  0.27482231  0.42214524     0.01400
H117        H  0.22687234  0.44328033  0.42004270     0.16000
H118        H  0.25899774  0.36642537  0.35153972     0.15800
C119        C  0.81250117  0.18720774  0.36953550     0.87600
C120        C  0.79621029  0.12981270  0.36502631    -0.52700
C121        C  0.82324497  0.11367929  0.38341985     0.10500
C122        C  0.86405469  0.15638463  0.40542230     0.21400
C123        C  0.80592966  0.19115139  0.40633549    -0.53400
C124        C  0.83320519  0.17555959  0.42507640     0.10600
C125        C  0.87111210  0.21734127  0.36389531    -0.52900
C126        C  0.89831952  0.20182653  0.38273917     0.11200
H127        H  0.76194143  0.10181130  0.35209018     0.15700
H128        H  0.88572509  0.14320787  0.42070398     0.01400
H129        H  0.78169512  0.20493693  0.41671711     0.16000
H130        H  0.88965219  0.24934344  0.34693161     0.15800
C131        C  0.62440902  0.81639975  0.37730560     0.87600
C132        C  0.65351584  0.78636728  0.37394622    -0.52700
C133        C  0.69777413  0.80597269  0.39174024     0.10500
C134        C  0.70880467  0.85342138  0.41220998     0.21400
C135        C  0.61508984  0.81497234  0.41423214    -0.53400
C136        C  0.65929255  0.83442663  0.43238054     0.10600
C137        C  0.66451425  0.87289971  0.36994661    -0.52900
C138        C  0.70837323  0.89263128  0.38833555     0.11200
H139        H  0.63863979  0.75018669  0.36068963     0.15700
H140        H  0.74466854  0.86920359  0.42695857     0.01400
H141        H  0.57708572  0.79740050  0.42534066     0.16000
H142        H  0.65745935  0.89616609  0.35277285     0.15800
C143        C  0.80483966  0.18939341  0.11980693     0.87600
C144        C  0.86371488  0.22068070  0.12532824    -0.52700
C145        C  0.89139570  0.20397217  0.10783271     0.10500
C146        C  0.85739469  0.15680850  0.08615985     0.21400
C147        C  0.80000010  0.19221409  0.08259987    -0.53400
C148        C  0.82722550  0.17489287  0.06517806     0.10600
C149        C  0.78963870  0.13306423  0.12647173    -0.52900
C150        C  0.81657369  0.11570193  0.10884757     0.11200
H151        H  0.88210374  0.25420951  0.14124587     0.15700
H152        H  0.87919870  0.14267690  0.07175173     0.01400
H153        H  0.78043208  0.20947816  0.07043236     0.16000
H154        H  0.75844338  0.10824957  0.14283579     0.15800
C155        C  0.19835290  0.39917254  0.12302799     0.87600
C156        C  0.21841660  0.36172383  0.12968732    -0.52700
C157        C  0.19613278  0.31794534  0.11108647     0.10500
C158        C  0.15321133  0.31372119  0.08847694     0.21400
C159        C  0.20369543  0.40793281  0.08612026    -0.53400
C160        C  0.18018333  0.36339513  0.06805366     0.10600
C161        C  0.13990502  0.36509642  0.12910318    -0.52900
C162        C  0.11576125  0.32136882  0.11038392     0.11200
H163        H  0.24831847  0.36870726  0.14712137     0.15700
H164        H  0.13463104  0.27775741  0.07365322     0.01400
H165        H  0.22413671  0.44619489  0.07527299     0.16000
H166        H  0.11876006  0.37481772  0.14640583     0.15800
O167        O  0.58548005  0.32141810  0.21071404    -0.80700
C168        C  0.70970715  0.27159388  0.29059363     0.98600
O169        O  0.67140817  0.24150072  0.27326809    -0.69800
O170        O  0.58561117  0.24277621  0.28666864    -0.73400
Al171      Al  0.62307705  0.24992243  0.24767027     1.49000
C172        C  0.55889010  0.26383083  0.29235500     0.93900
O173        O  0.65284683  0.38818641  0.28930437    -0.79700
O174        O  0.73201234  0.39368780  0.21263338    -0.73200
Al175      Al  0.62172148  0.35254861  0.25007442     1.90100
O176        O  0.73249628  0.40864672  0.27854742    -0.72300
O177        O  0.73513484  0.30760396  0.22311132    -0.72100
O178        O  0.72903073  0.31996592  0.28852566    -0.77800
O179        O  0.65654607  0.24878371  0.20842655    -0.76000
O180        O  0.65696758  0.31903753  0.24940876    -1.12100
O181        O  0.56702773  0.24246178  0.22185799    -0.71300
C182        C  0.55786116  0.27322881  0.20633596     0.99400
C183        C  0.70066796  0.41547906  0.29483961     0.95800
Al184      Al  0.72607860  0.35439736  0.25055130     1.55600
O185        O  0.56608696  0.30280579  0.27624458    -0.75900
C186        C  0.70499329  0.26938519  0.20561625     1.00000
C187        C  0.71050317  0.42040971  0.20897880     0.94800
O188        O  0.67002694  0.40959507  0.22462378    -0.81300
C189        C  0.78792792  0.21616825  0.17497813     0.24700
C190        C  0.77502351  0.20733978  0.14166696    -0.23400
C191        C  0.73364664  0.21377158  0.13068691     0.19600
C192        C  0.71048701  0.23357626  0.15145223     0.24600
C193        C  0.72743556  0.24685034  0.18355906    -0.23400
C194        C  0.76556386  0.23695189  0.19529676     0.19500
F195        F  0.78036642  0.24622361  0.22689220    -0.13300
F196        F  0.82247902  0.20460175  0.18810107    -0.15700
F197        F  0.67186723  0.24044614  0.13999700    -0.15700
F198        F  0.71286060  0.19833293  0.10074022    -0.13300
C199        C  0.97580709  0.28748344  0.10524706     0.24700
C200        C  0.94891130  0.23308934  0.10709226    -0.23400
C201        C  0.97733863  0.20733153  0.10795829     0.19600
C202        C  0.03165177  0.23565466  0.10829972     0.24600
C203        C  0.05833640  0.29012180  0.10814368    -0.23400
C204        C  0.02969510  0.31556662  0.10579173     0.19500
F205        F  0.05392744  0.36793221  0.10317053    -0.13300
F206        F  0.94997447  0.31373493  0.10206040    -0.15700
F207        F  0.05787893  0.20976022  0.10984063    -0.15700
F208        F  0.95265462  0.15487880  0.10966832    -0.13300
C209        C  0.75669035  0.18290544  0.32030189     0.24700
C210        C  0.78454653  0.20817733  0.34877488    -0.23400
C211        C  0.78939567  0.25655214  0.35670631     0.19600
C212        C  0.76415563  0.27670444  0.33847401     0.24600
C213        C  0.73396709  0.24954391  0.31149635    -0.23400
C214        C  0.73069070  0.20254077  0.30263645     0.19500
F215        F  0.70477201  0.17672868  0.27545220    -0.13300
F216        F  0.75763158  0.14169277  0.30733922    -0.15700
F217        F  0.76938362  0.32291252  0.34727104    -0.15700
F218        F  0.81968720  0.28522730  0.38183551    -0.13300
C219        C  0.78311596  0.15372197  0.01119946     0.24700
C220        C  0.82914130  0.17561748  0.02928489    -0.23400
C221        C  0.87683541  0.19768729  0.01293974     0.19600
C222        C  0.87779248  0.19675716  0.47898542     0.24600
C223        C  0.83171271  0.17560538  0.46097201    -0.23400
C224        C  0.78413861  0.15408165  0.47740744     0.19500
F225        F  0.73890676  0.13152203  0.46066530    -0.13300
F226        F  0.73651952  0.13069471  0.02638067    -0.15700
F227        F  0.92433353  0.21891565  0.46375318    -0.15700
F228        F  0.92198333  0.22049986  0.02976767    -0.13300
C229        C  0.78980108  0.03204790  0.41574053     0.24700
C230        C  0.80576509  0.05771447  0.38577906    -0.23400
C231        C  0.79583611  0.02826439  0.35724064     0.19600
C232        C  0.76694890  0.97421610  0.35832500     0.24600
C233        C  0.74762604  0.94860219  0.38798352    -0.23400
C234        C  0.76080104  0.97784029  0.41683102     0.19500
F235        F  0.74153921  0.95437359  0.44576592    -0.13300
F236        F  0.79782532  0.05927001  0.44364894    -0.15700
F237        F  0.75577285  0.94688828  0.33019277    -0.15700
F238        F  0.81168910  0.05207779  0.32804023    -0.13300
C239        C  0.13589799  0.33243873  0.48033573     0.24700
C240        C  0.18268425  0.36139637  0.46343028    -0.23400
C241        C  0.22867266  0.39115067  0.48106725     0.19600
C242        C  0.22797343  0.39167413  0.01515108     0.24600
C243        C  0.18112529  0.36282394  0.03204186    -0.23400
C244        C  0.13529840  0.33246858  0.01436849     0.19500
F245        F  0.08928990  0.30507080  0.02993811    -0.13300
F246        F  0.09074766  0.30423610  0.46396166    -0.15700
F247        F  0.27314587  0.41970747  0.03153965    -0.15700
F248        F  0.27473036  0.41785065  0.46545154    -0.13300
C249        C  0.03791254  0.23186893  0.38189679     0.24700
C250        C  0.06532604  0.28621383  0.38421909    -0.23400
C251        C  0.03716710  0.31218559  0.38699385     0.19600
C252        C  0.98315563  0.28468987  0.38658874     0.24600
C253        C  0.95577583  0.23043699  0.38362672    -0.23400
C254        C  0.98358398  0.20417462  0.38169134     0.19500
F255        F  0.95820107  0.15186979  0.37833211    -0.13300
F256        F  0.06344537  0.20558360  0.37843529    -0.15700
F257        F  0.95755800  0.31119399  0.38986150    -0.15700
F258        F  0.06199785  0.36443942  0.39070144    -0.13300
C259        C  0.77174814  0.98111761  0.14020455     0.24700
C260        C  0.75159095  0.95125616  0.11187799    -0.23400
C261        C  0.76084761  0.97665636  0.08179860     0.19600
C262        C  0.78592666  0.03085779  0.08047977     0.24600
C263        C  0.80198797  0.06035447  0.10919254    -0.23400
C264        C  0.79668579  0.03517288  0.13887175     0.19500
F265        F  0.81361600  0.06295453  0.16679992    -0.13300
F266        F  0.76497976  0.95770886  0.16942504    -0.15700
F267        F  0.79009878  0.05405463  0.05147716    -0.15700
F268        F  0.74148072  0.94917643  0.05398609    -0.13300
C269        C  0.68620525  0.81293004  0.01884186     0.24700
C270        C  0.66025612  0.83303747  0.03664627    -0.23400
C271        C  0.63313628  0.85306923  0.02010074     0.19600
C272        C  0.63297989  0.85363958  0.48589036     0.24600
C273        C  0.65921713  0.83367853  0.46820275    -0.23400
C274        C  0.68590984  0.81334263  0.48489135     0.19500
F275        F  0.71041791  0.79247822  0.46852438    -0.13300
F276        F  0.71101544  0.79151494  0.03416045    -0.15700
F277        F  0.60812869  0.87480257  0.47033611    -0.15700
F278        F  0.60899100  0.87411811  0.03673453    -0.13300
C279        C  0.76580077  0.47229508  0.16152261     0.24700
C280        C  0.73390965  0.46702263  0.18798484    -0.23400
C281        C  0.72679077  0.50873178  0.19598677     0.19600
C282        C  0.75025650  0.55431398  0.17793078     0.24600
C283        C  0.77917970  0.55874744  0.14964918    -0.23400
C284        C  0.78818306  0.51751463  0.14264294     0.19500
F285        F  0.81956428  0.52124877  0.11771677    -0.13300
F286        F  0.77511156  0.43358726  0.15372452    -0.15700
F287        F  0.74762084  0.59486715  0.19042763    -0.15700
F288        F  0.69930484  0.50684040  0.22273747    -0.13300
C289        C  0.72839511  0.69653132  0.10334860     0.24700
C290        C  0.78207095  0.72079286  0.10880547    -0.23400
C291        C  0.81048553  0.77499547  0.11232402     0.19600
C292        C  0.78516756  0.80381362  0.11266176     0.24600
C293        C  0.73106671  0.77866771  0.10983065    -0.23400
C294        C  0.70319047  0.72502104  0.10414186     0.19500
F295        F  0.65125598  0.70003412  0.09927768    -0.13300
F296        F  0.70004821  0.64479912  0.09751388    -0.15700
F297        F  0.81315789  0.85581525  0.11743072    -0.15700
F298        F  0.86218872  0.79987370  0.11713921    -0.13300
C299        C  0.97282870  0.68975691  0.10841961     0.24700
C300        C  0.94386430  0.71473197  0.11196503    -0.23400
C301        C  0.97029402  0.76905558  0.11424097     0.19600
C302        C  0.02453432  0.79774729  0.11414217     0.24600
C303        C  0.05325710  0.77250784  0.11181627    -0.23400
C304        C  0.02685690  0.71829105  0.10841173     0.19500
F305        F  0.05343487  0.69290424  0.10436732    -0.13300
F306        F  0.94877077  0.63758981  0.10439787    -0.15700
F307        F  0.04892664  0.84999544  0.11762833    -0.15700
F308        F  0.94384231  0.79436533  0.11795595    -0.13300
C309        C  0.12380152  0.80670898  0.48385789     0.24700
C310        C  0.16940710  0.82609878  0.46554841    -0.23400
C311        C  0.21727481  0.84806819  0.48169382     0.19600
C312        C  0.21889049  0.84949164  0.01540256     0.24600
C313        C  0.17318295  0.82929683  0.03378886    -0.23400
C314        C  0.12539615  0.80826963  0.01759887     0.19500
F315        F  0.08044343  0.78761654  0.03454257    -0.13300
F316        F  0.07700011  0.78462680  0.46895539    -0.15700
F317        F  0.26574187  0.87237071  0.03027531    -0.15700
F318        F  0.26209896  0.86921257  0.46456377    -0.13300
C319        C  0.50284656  0.27494837  0.33291117     0.24700
C320        C  0.51731001  0.24237898  0.31719219    -0.23400
C321        C  0.49017490  0.18928606  0.32454911     0.19600
C322        C  0.44676866  0.16861366  0.34495745     0.24600
C323        C  0.42803956  0.20031088  0.35746295    -0.23400
C324        C  0.45981185  0.25444279  0.35343888     0.19500
F325        F  0.44965079  0.28804143  0.36949219    -0.13300
F326        F  0.53061427  0.32704026  0.32854369    -0.15700
F327        F  0.42482055  0.11800432  0.35324952    -0.15700
F328        F  0.50456634  0.15687258  0.31122127    -0.13300
C329        C  0.22234216  0.19710992  0.38822382     0.24700
C330        C  0.27642455  0.22098988  0.39062373    -0.23400
C331        C  0.30555848  0.27498795  0.39510666     0.19600
C332        C  0.28167680  0.30480999  0.39493651     0.24600
C333        C  0.22793538  0.28157548  0.39020267    -0.23400
C334        C  0.19829838  0.22719467  0.38801297     0.19500
F335        F  0.14642687  0.20315171  0.38426143    -0.13300
F336        F  0.19298350  0.14495594  0.38466579    -0.15700
F337        F  0.31130569  0.35672280  0.39971515    -0.15700
F338        F  0.35742657  0.29904661  0.40009616    -0.13300
C339        C  0.23476746  0.01896477  0.41464567     0.24700
C340        C  0.25109237  0.04670255  0.38538303    -0.23400
C341        C  0.23559567  0.01910837  0.35587999     0.19600
C342        C  0.20768217  0.96488226  0.35570550     0.24600
C343        C  0.19475211  0.93706321  0.38503206    -0.23400
C344        C  0.20690650  0.96473190  0.41448115     0.19500
F345        F  0.19628240  0.93959577  0.44329632    -0.13300
F346        F  0.24997341  0.04397590  0.44357710    -0.15700
F347        F  0.19501472  0.93954405  0.32678675    -0.15700
F348        F  0.24931838  0.04463897  0.32712589    -0.13300
C349        C  0.71326478  0.52665088  0.34656461     0.24700
C350        C  0.76471460  0.54917526  0.35820762    -0.23400
C351        C  0.79025843  0.52066907  0.35360140     0.19600
C352        C  0.76888484  0.47647781  0.33383187     0.24600
C353        C  0.72026401  0.45793974  0.31922431    -0.23400
C354        C  0.69187550  0.48231886  0.32688961     0.19500
F355        F  0.64359022  0.46409203  0.31470989    -0.13300
F356        F  0.68199839  0.54525851  0.35522647    -0.15700
F357        F  0.79582086  0.45158983  0.32917793    -0.15700
F358        F  0.83616501  0.53534830  0.36834120    -0.13300
C359        C  0.83033016  0.60468755  0.48511754     0.24700
C360        C  0.81575039  0.63611916  0.46816058    -0.23400
C361        C  0.80269258  0.66823903  0.48575099     0.19600
C362        C  0.80341420  0.66799959  0.01942257     0.24600
C363        C  0.81846658  0.63695483  0.03627932    -0.23400
C364        C  0.83124936  0.60460491  0.01864273     0.19500
F365        F  0.84685863  0.57492660  0.03428224    -0.13300
F366        F  0.84481784  0.57454848  0.46876612    -0.15700
F367        F  0.78886015  0.69806694  0.03574341    -0.15700
F368        F  0.78696204  0.69784689  0.47018596    -0.13300
C369        C  0.96035240  0.68381235  0.39293016     0.24700
C370        C  0.93234489  0.70972466  0.38980480    -0.23400
C371        C  0.95955966  0.76423187  0.38904145     0.19600
C372        C  0.01389883  0.79209821  0.38946770     0.24600
C373        C  0.04166804  0.76578218  0.39100094    -0.23400
C374        C  0.01421697  0.71144227  0.39369315     0.19500
F375        F  0.03961464  0.68486869  0.39757430    -0.13300
F376        F  0.93548075  0.63147805  0.39599863    -0.15700
F377        F  0.03923817  0.84450383  0.38710013    -0.15700
F378        F  0.93382476  0.79053710  0.38682084    -0.13300
C379        C  0.69908753  0.72618184  0.40665700     0.24700
C380        C  0.72575580  0.77729776  0.39514127    -0.23400
C381        C  0.77709128  0.79864788  0.38456954     0.19600
C382        C  0.80053129  0.76813312  0.38395020     0.24600
C383        C  0.77305384  0.71638531  0.39439642    -0.23400
C384        C  0.72256931  0.69607648  0.40638168     0.19500
F385        F  0.69561779  0.64654457  0.41728760    -0.13300
F386        F  0.64982243  0.70518698  0.41774841    -0.15700
F387        F  0.84855587  0.78803687  0.37122533    -0.15700
F388        F  0.80330511  0.84786483  0.37311318    -0.13300
C389        C  0.42204065  0.18431004  0.17613993     0.24700
C390        C  0.41984488  0.20804889  0.14695642    -0.23400
C391        C  0.46366213  0.25631212  0.13882325     0.19600
C392        C  0.50893700  0.27769322  0.15767450     0.24600
C393        C  0.51163262  0.25142205  0.18510862    -0.23400
C394        C  0.46761203  0.20471004  0.19408966     0.19500
F395        F  0.46736535  0.18002821  0.22177895    -0.13300
F396        F  0.37952440  0.14399767  0.18957120    -0.15700
F397        F  0.55014352  0.32391169  0.14897066    -0.15700
F398        F  0.46234147  0.28360863  0.11294812    -0.13300
C399        C  0.23031917  0.02673959  0.14216530     0.24700
C400        C  0.24654546  0.05456348  0.11289565    -0.23400
C401        C  0.23297161  0.02708834  0.08338882     0.19600
C402        C  0.20852837  0.97291781  0.08330685     0.24600
C403        C  0.19740346  0.94554283  0.11272077    -0.23400
C404        C  0.20607865  0.97273741  0.14208166     0.19500
F405        F  0.19347180  0.94715395  0.17081749    -0.13300
F406        F  0.24098184  0.05216549  0.17101755    -0.15700
F407        F  0.20059759  0.94789194  0.05450242    -0.15700
F408        F  0.24796872  0.05256320  0.05468557    -0.13300
C409        C  0.31143794  0.18575767  0.01595370     0.24700
C410        C  0.33736687  0.16649198  0.03450241    -0.23400
C411        C  0.36288498  0.14402914  0.01856045     0.19600
C412        C  0.36255205  0.14157226  0.48488897     0.24600
C413        C  0.33765280  0.16204273  0.46637193    -0.23400
C414        C  0.31155643  0.18379788  0.48240161     0.13900
F415        F  0.28785743  0.20468324  0.46528620    -0.13300
F416        F  0.28720019  0.20845785  0.03057899    -0.15700
F417        F  0.38606178  0.11824619  0.47012382    -0.15700
F418        F  0.38615430  0.12286117  0.03586798    -0.13300
C419        C  0.27247561  0.30819112  0.09972306     0.24700
C420        C  0.22004686  0.28505579  0.10849789    -0.23400
C421        C  0.19264209  0.23214459  0.11635584     0.19600
C422        C  0.21782459  0.20322549  0.11640950     0.24600
C423        C  0.27079326  0.22718447  0.10905992    -0.23400
C424        C  0.29762850  0.27961139  0.10013550     0.19500
F425        F  0.34836969  0.30315368  0.09174071    -0.13300
F426        F  0.29952651  0.35885345  0.09099829    -0.15700
F427        F  0.19120996  0.15258728  0.12513400    -0.15700
F428        F  0.14247210  0.20918097  0.12564806    -0.13300
C429        C  0.30164222  0.81017026  0.17671729     0.24700
C430        C  0.27682904  0.75691565  0.18366527    -0.23400
C431        C  0.22970705  0.72365998  0.16807394     0.19600
C432        C  0.20646105  0.74332193  0.14765172     0.24600
C433        C  0.22781218  0.79729962  0.14369343    -0.23400
C434        C  0.27791827  0.83009119  0.15663779     0.19500
F435        F  0.30555840  0.88105168  0.14895566    -0.13300
F436        F  0.34839036  0.84342737  0.19002794    -0.15700
F437        F  0.16276914  0.70897784  0.13167203    -0.15700
F438        F  0.20595226  0.67161590  0.17239823    -0.13300
C439        C  0.53666425  0.79748972  0.19874045     0.24700
C440        C  0.49049586  0.75448464  0.18774562    -0.23400
C441        C  0.49104113  0.73051932  0.15857719     0.19600
C442        C  0.53627760  0.75058511  0.13999511     0.24600
C443        C  0.58190011  0.79640180  0.14955979    -0.23400
C444        C  0.58202307  0.81735453  0.18040182     0.19500
F445        F  0.62646767  0.85451516  0.19428223    -0.13300
F446        F  0.53879252  0.81860164  0.22833768    -0.15700
F447        F  0.53552558  0.72399587  0.11305202    -0.15700
F448        F  0.44767477  0.68753203  0.14797696    -0.13300
C449        C  0.26496376  0.81181045  0.34986337     0.24700
C450        C  0.21137646  0.78098111  0.35606547    -0.23400
C451        C  0.18670468  0.72819166  0.34671034     0.19600
C452        C  0.21222801  0.70970584  0.32731897     0.24600
C453        C  0.26397058  0.74247815  0.31803120    -0.23400
C454        C  0.29059407  0.79320245  0.33054521     0.19500
F455        F  0.34168258  0.82497719  0.32427638    -0.13300
F456        F  0.29311824  0.85995984  0.36285053    -0.15700
F457        F  0.18552633  0.65962634  0.31719599    -0.15700
F458        F  0.13865984  0.69315163  0.35730055    -0.13300
C459        C  0.57609105  0.77589812  0.32452216     0.24700
C460        C  0.57650816  0.79631178  0.35556191    -0.23400
C461        C  0.53393222  0.80237731  0.36399429     0.19600
C462        C  0.49015044  0.78270001  0.34387362     0.24600
C463        C  0.48822814  0.75724418  0.31477237    -0.23400
C464        C  0.53217725  0.75523368  0.30504331     0.19500
F465        F  0.53368892  0.73507222  0.27574668    -0.13300
F466        F  0.61888526  0.77760659  0.31200639    -0.15700
F467        F  0.44965258  0.78833334  0.35297544    -0.15700
F468        F  0.53510538  0.82907642  0.39095951    -0.13300
C469        C  0.27697096  0.47353844  0.15234895     0.24700
C470        C  0.22489521  0.45054928  0.14209188    -0.23400
C471        C  0.19918792  0.47866186  0.14789016     0.19600
C472        C  0.22149326  0.52303942  0.16756259     0.24600
C473        C  0.27102926  0.54193176  0.18098997    -0.23400
C474        C  0.29908554  0.51758204  0.17215041     0.19500
F475        F  0.34849410  0.53650493  0.18245830    -0.13300
F476        F  0.30791456  0.45521517  0.14230350    -0.15700
F477        F  0.19387992  0.54676740  0.17388286    -0.15700
F478        F  0.15257618  0.46395259  0.13418421    -0.13300
C479        C  0.30740889  0.51648186  0.32515330     0.24700
C480        C  0.27805989  0.53895070  0.31541667    -0.23400
C481        C  0.22759261  0.51804452  0.32770114     0.19600
C482        C  0.20578056  0.47375364  0.34718889     0.24600
C483        C  0.23257743  0.44696284  0.35356606    -0.23400
C484        C  0.28534158  0.47168760  0.34438596     0.19500
F485        F  0.31678359  0.45438847  0.35500567    -0.13300
F486        F  0.35742899  0.53722595  0.31565594    -0.15700
F487        F  0.15848700  0.45786304  0.36026293    -0.15700
F488        F  0.19920414  0.54085239  0.32122112    -0.13300
O489        O  0.27122690  0.61143107  0.71031008    -0.80700
C490        C  0.44234953  0.73440936  0.79339690     0.98600
O491        O  0.43424103  0.69649187  0.77575364    -0.69800
O492        O  0.34688154  0.60994590  0.78715220    -0.73400
Al493      Al  0.37882112  0.64879449  0.74897202     1.49000
C494        C  0.29880642  0.58227984  0.79191178     0.93900
O495        O  0.26897615  0.67666303  0.78858620    -0.79700
O496        O  0.34619998  0.75846948  0.71389521    -0.73200
Al497      Al  0.27479801  0.64661063  0.74960437     1.90100
O498        O  0.32837521  0.75697547  0.77917923    -0.72300
O499        O  0.43512790  0.76187886  0.72601424    -0.72100
O500        O  0.41372115  0.75400853  0.79116380    -0.77800
O501        O  0.41509171  0.68358752  0.71071625    -0.76000
O502        O  0.34370629  0.68238497  0.75028895    -1.12100
O503        O  0.33150628  0.59335952  0.72176840    -0.71300
C504        C  0.29267829  0.58505855  0.70520837     0.99400
C505        C  0.28880093  0.72428091  0.79450115     0.95800
Al506      Al  0.37776225  0.75172786  0.75235491     1.55600
O507        O  0.26756615  0.59014062  0.77570020    -0.75900
C508        C  0.44373400  0.73209778  0.70864408     1.00000
C509        C  0.29822657  0.73580532  0.70813429     0.94800
O510        O  0.26727977  0.69532194  0.72352329    -0.81300
C511        C  0.37023557  0.18552656  0.62620612     0.87600
C512        C  0.32875003  0.12851266  0.63212910    -0.52700
C513        C  0.28494057  0.11084108  0.61398948     0.10500
C514        C  0.28677656  0.15160982  0.59054164     0.21400
C515        C  0.38005748  0.18644687  0.58938528    -0.53400
C516        C  0.33650773  0.16903996  0.57072794     0.10600
C517        C  0.34209705  0.21613311  0.63035287    -0.52900
C518        C  0.29882842  0.19880784  0.61166341     0.11200
H519        H  0.33539921  0.10138862  0.64554856     0.15700
H520        H  0.25137753  0.13735662  0.57551039     0.01400
H521        H  0.41803654  0.19975536  0.57898249     0.16000
H522        H  0.35628249  0.24991784  0.64599351     0.15800
C523        C  0.79097409  0.60049762  0.87691461     0.87600
C524        C  0.84892176  0.63513126  0.86912308    -0.52700
C525        C  0.87419021  0.67865099  0.88797354     0.10500
C526        C  0.83843143  0.68546876  0.91177484     0.21400
C527        C  0.78903603  0.59117938  0.91369173    -0.53400
C528        C  0.81350502  0.63541301  0.93190630     0.10600
C529        C  0.76979745  0.63762901  0.87248304    -0.52900
C530        C  0.79390725  0.68140640  0.89104007     0.11200
H531        H  0.86905595  0.62512617  0.85118670     0.15700
H532        H  0.85846445  0.72124963  0.92671809     0.01400
H533        H  0.76916702  0.55278227  0.92438240     0.16000
H534        H  0.73886748  0.63129887  0.85615948     0.15800
C535        C  0.37615660  0.17677047  0.87558429     0.87600
C536        C  0.34701989  0.20628901  0.86969874    -0.52700
C537        C  0.30327705  0.18967370  0.88786937     0.10500
C538        C  0.29054530  0.14240330  0.90907674     0.21400
C539        C  0.38372711  0.17837563  0.91256958    -0.53400
C540        C  0.33911915  0.16064081  0.93008733     0.10600
C541        C  0.33481060  0.12034685  0.86794063    -0.52900
C542        C  0.29047641  0.10184582  0.88576291     0.11200
H543        H  0.36028504  0.23858933  0.85305373     0.15700
H544        H  0.25441266  0.12779002  0.92339365     0.01400
H545        H  0.42141886  0.19366789  0.92388483     0.16000
H546        H  0.33957792  0.09621030  0.85029795     0.15800
C547        C  0.18204166  0.80283352  0.87471079     0.87600
C548        C  0.19837829  0.85925659  0.86647526    -0.52700
C549        C  0.17485682  0.87966424  0.88489198     0.10500
C550        C  0.13510963  0.84063627  0.90918552     0.21400
C551        C  0.19058534  0.80295517  0.91145337    -0.53400
C552        C  0.16612281  0.82261621  0.92948165     0.10600
C553        C  0.12304168  0.77442876  0.87012867    -0.52900
C554        C  0.09820345  0.79283830  0.88881733     0.11200
H555        H  0.22780083  0.88205946  0.84865032     0.15700
H556        H  0.11524653  0.85653101  0.92395455     0.01400
H557        H  0.21362062  0.78815107  0.92226887     0.16000
H558        H  0.10189508  0.74318246  0.85300085     0.15800
C559        C  0.19793895  0.81822966  0.62488682     0.87600
C560        C  0.13917295  0.78771834  0.63132751    -0.52700
C561        C  0.11101603  0.80244495  0.61281951     0.10500
C562        C  0.14444304  0.84859046  0.59052661     0.21400
C563        C  0.20332809  0.81485701  0.58794011    -0.53400
C564        C  0.17539090  0.83067139  0.56998917     0.10600
C565        C  0.21203224  0.87473081  0.63121907    -0.52900
C566        C  0.18466646  0.89085592  0.61295721     0.11200
H567        H  0.12099608  0.75664917  0.64891576     0.15700
H568        H  0.12203169  0.86161329  0.57588018     0.01400
H569        H  0.22651126  0.80024177  0.57700310     0.16000
H570        H  0.24079242  0.90038803  0.64851253     0.15800
C571        C  0.80357847  0.60832113  0.62851612     0.87600
C572        C  0.78313137  0.64609094  0.63262741    -0.52700
C573        C  0.80660028  0.68915930  0.61358284     0.10500
C574        C  0.84940458  0.69109960  0.59180773     0.21400
C575        C  0.79744968  0.59675794  0.59172292    -0.53400
C576        C  0.82149345  0.63993216  0.57256842     0.10600
C577        C  0.86203741  0.64133863  0.63383376    -0.52900
C578        C  0.88651884  0.68406596  0.61443987     0.11200
H579        H  0.74851787  0.63737462  0.64585916     0.15700
H580        H  0.86885284  0.72591209  0.57611110     0.01400
H581        H  0.77499585  0.55797388  0.58169511     0.16000
H582        H  0.88270414  0.63044973  0.65074231     0.15800
C583        C  0.62994416  0.81906115  0.62787752     0.87600
C584        C  0.67021593  0.87674092  0.63319540    -0.52700
C585        C  0.71350175  0.89496948  0.61431622     0.10500
C586        C  0.71265563  0.85368963  0.59151801     0.21400
C587        C  0.61920802  0.81649893  0.59112852    -0.53400
C588        C  0.66224627  0.83374950  0.57221792     0.10600
C589        C  0.65971821  0.79023419  0.63233062    -0.52900
C590        C  0.70263606  0.80781920  0.61321553     0.11200
H591        H  0.66305979  0.90278310  0.64772326     0.15700
H592        H  0.74766456  0.86827277  0.57606085     0.01400
H593        H  0.58110323  0.80256019  0.58079356     0.16000
H594        H  0.64661452  0.75712430  0.64832653     0.15800
C595        C  0.20631604  0.39515653  0.87262473     0.87600
C596        C  0.14858885  0.35998944  0.86466161    -0.52700
C597        C  0.12342949  0.31646053  0.88325044     0.10500
C598        C  0.15948696  0.30992966  0.90714681     0.21400
C599        C  0.20827069  0.40427070  0.90942991    -0.53400
C600        C  0.18408831  0.36000530  0.92751568     0.10600
C601        C  0.22809634  0.35861319  0.86792543    -0.52900
C602        C  0.20497206  0.31479592  0.88658102     0.11200
H603        H  0.12835400  0.36931458  0.84650351     0.15700
H604        H  0.13992469  0.27420201  0.92203002     0.01400
H605        H  0.22724477  0.44268354  0.92024303     0.16000
H606        H  0.25930195  0.36608827  0.85144383     0.15800
C607        C  0.81311998  0.18771118  0.86951991     0.87600
C608        C  0.79659117  0.13022130  0.86509171    -0.52700
C609        C  0.82350637  0.11398361  0.88351804     0.10500
C610        C  0.86449148  0.15667876  0.90543967     0.21400
C611        C  0.80666696  0.19181066  0.90632358    -0.53400
C612        C  0.83387728  0.17614325  0.92506714     0.10600
C613        C  0.87174090  0.21763645  0.86384312    -0.52900
C614        C  0.89882300  0.20195104  0.88267665     0.11200
H615        H  0.76226200  0.10226679  0.85218023     0.15700
H616        H  0.88609853  0.14344294  0.92074059     0.01400
H617        H  0.78249879  0.20566818  0.91671670     0.16000
H618        H  0.89039820  0.24965220  0.84689736     0.15800
C619        C  0.62428911  0.81668018  0.87746452     0.87600
C620        C  0.65337395  0.78662821  0.87417567    -0.52700
C621        C  0.69755827  0.80618666  0.89202966     0.10500
C622        C  0.70855333  0.85364936  0.91248523     0.21400
C623        C  0.61483628  0.81522540  0.91437902    -0.53400
C624        C  0.65896908  0.83463247  0.93259356     0.10600
C625        C  0.66443124  0.87317798  0.87012823    -0.52900
C626        C  0.70820869  0.89288178  0.88858557     0.11200
H627        H  0.63851194  0.75043380  0.86093714     0.15700
H628        H  0.74437412  0.86943942  0.92727758     0.01400
H629        H  0.57677802  0.79760502  0.92542487     0.16000
H630        H  0.65746944  0.89646681  0.85291931     0.15800
C631        C  0.80501952  0.18961981  0.61987989     0.87600
C632        C  0.86391909  0.22107413  0.62520103    -0.52700
C633        C  0.89152304  0.20431274  0.60769481     0.10500
C634        C  0.85741168  0.15693278  0.58619594     0.21400
C635        C  0.79985674  0.19216329  0.58268885    -0.53400
C636        C  0.82699998  0.17477489  0.56522877     0.10600
C637        C  0.78996294  0.13339809  0.62669154    -0.52900
C638        C  0.81679033  0.11594874  0.60904546     0.11200
H639        H  0.88239026  0.25476575  0.64098203     0.15700
H640        H  0.87916582  0.14273709  0.57179742     0.01400
H641        H  0.78014158  0.20934445  0.57058946     0.16000
H642        H  0.75883896  0.10867359  0.64312535     0.15800
C643        C  0.19849501  0.39968440  0.62289594     0.87600
C644        C  0.21849528  0.36216254  0.62946626    -0.52700
C645        C  0.19618435  0.31846152  0.61081036     0.10500
C646        C  0.15324293  0.31433999  0.58826367     0.21400
C647        C  0.20378919  0.40855988  0.58601045    -0.53400
C648        C  0.18019599  0.36408219  0.56790807     0.10600
C649        C  0.14003621  0.36567072  0.62898578    -0.52900
C650        C  0.11585024  0.32196151  0.61024296     0.11200
H651        H  0.24830429  0.36896668  0.64692532     0.15700
H652        H  0.13461056  0.27843000  0.57338845     0.01400
H653        H  0.22422675  0.44685100  0.57520028     0.16000
H654        H  0.11893358  0.37548338  0.64626940     0.15800
O655        O  0.58538985  0.32122381  0.71062177    -0.80700
C656        C  0.71012442  0.27190819  0.79044531     0.98600
O657        O  0.67180883  0.24171879  0.77314991    -0.69800
O658        O  0.58584154  0.24265663  0.78654457    -0.73400
Al659      Al  0.62329173  0.24993704  0.74755330     1.49000
C660        C  0.55889731  0.26346995  0.79219221     0.93900
O661        O  0.65261060  0.38789698  0.78920324    -0.79700
O662        O  0.73185706  0.39387944  0.71244641    -0.73200
Al663      Al  0.62155990  0.35234402  0.74998106     1.90100
O664        O  0.73235049  0.40873920  0.77834195    -0.72300
O665        O  0.73527225  0.30793090  0.72292233    -0.72100
O666        O  0.72932096  0.32026413  0.78834045    -0.77800
O667        O  0.65672089  0.24890374  0.70831804    -0.76000
O668        O  0.65699865  0.31903940  0.74927677    -1.12100
O669        O  0.56713312  0.24232145  0.72174953    -0.71300
C670        C  0.55783955  0.27303004  0.70625014     0.99400
C671        C  0.70042854  0.41537378  0.79466521     0.95800
Al672      Al  0.72611428  0.35460402  0.75036283     1.55600
O673        O  0.56597121  0.30244302  0.77612970    -0.75900
C674        C  0.70516248  0.26961882  0.70548649     1.00000
C675        C  0.71024946  0.42053203  0.70887626     0.94800
O676        O  0.66975027  0.40952142  0.72455923    -0.81300
C677        C  0.78872447  0.21718190  0.67494296     0.24700
C678        C  0.77527266  0.20756778  0.64173977    -0.23400
C679        C  0.73325092  0.21299050  0.63087971     0.19600
C680        C  0.71005711  0.23281894  0.65158038     0.24600
C681        C  0.72763750  0.24707851  0.68350188    -0.23400
C682        C  0.76632817  0.23798752  0.69518730     0.19500
F683        F  0.78160361  0.24799315  0.72668108    -0.13300
F684        F  0.82377314  0.20629887  0.68804728    -0.15700
F685        F  0.67074976  0.23868230  0.64025576    -0.15700
F686        F  0.71191552  0.19648903  0.60115166    -0.13300
C687        C  0.97586039  0.28791255  0.60492866     0.24700
C688        C  0.94902743  0.23351686  0.60685338    -0.23400
C689        C  0.97750939  0.20783596  0.60784365     0.19600
C690        C  0.03180796  0.23622572  0.60822617     0.24600
C691        C  0.05843457  0.29068902  0.60801158    -0.23400
C692        C  0.02975140  0.31607142  0.60555238     0.19500
F693        F  0.05394680  0.36843268  0.60290901    -0.13300
F694        F  0.94996489  0.31408244  0.60161959    -0.15700
F695        F  0.05807528  0.21039153  0.60987623    -0.15700
F696        F  0.95288949  0.15539562  0.60965661    -0.13300
C697        C  0.75741187  0.18344999  0.82022808     0.24700
C698        C  0.78520591  0.20872548  0.84871930    -0.23400
C699        C  0.78997918  0.25708349  0.85662157     0.19600
C700        C  0.76469790  0.27718256  0.83835276     0.24600
C701        C  0.73453399  0.24998477  0.81136591    -0.23400
C702        C  0.73137864  0.20302769  0.80252757     0.19500
F703        F  0.70552932  0.17719584  0.77533192    -0.13300
F704        F  0.75842549  0.14225657  0.80729641    -0.15700
F705        F  0.76984458  0.32336351  0.84713269    -0.15700
F706        F  0.82020866  0.28578307  0.88176447    -0.13300
C707        C  0.78268896  0.15402891  0.51128704     0.24700
C708        C  0.82874376  0.17533993  0.52932355    -0.23400
C709        C  0.87633698  0.19668722  0.51291115     0.19600
C710        C  0.87840249  0.19788017  0.97900654     0.24600
C711        C  0.83233311  0.17615156  0.96095138    -0.23400
C712        C  0.78467902  0.15392350  0.97732432     0.19500
F713        F  0.73951376  0.13081200  0.96051127    -0.13300
F714        F  0.73614234  0.13170401  0.52651187    -0.15700
F715        F  0.92498475  0.22066104  0.96380163    -0.15700
F716        F  0.92155292  0.21896835  0.52965894    -0.13300
C717        C  0.78898683  0.03236986  0.91596343     0.24700
C718        C  0.80573622  0.05796986  0.88602830    -0.23400
C719        C  0.79635760  0.02845231  0.85757622     0.19600
C720        C  0.76739954  0.97439426  0.85869178     0.24600
C721        C  0.74742459  0.94885888  0.88829403    -0.23400
C722        C  0.75989112  0.97816813  0.91708159     0.19500
F723        F  0.73986759  0.95476438  0.94592491    -0.13300
F724        F  0.79638618  0.05966923  0.94376415    -0.15700
F725        F  0.75681686  0.94697473  0.83062962    -0.15700
F726        F  0.81287741  0.05221302  0.82841225    -0.13300
C727        C  0.13624949  0.33132379  0.98039993     0.24700
C728        C  0.18302346  0.36057945  0.96352408    -0.23400
C729        C  0.22891851  0.39050931  0.98122042     0.19600
C730        C  0.22783232  0.39231760  0.51499156     0.24600
C731        C  0.18099856  0.36364476  0.53191618    -0.23400
C732        C  0.13505163  0.33358685  0.51429948     0.19500
F733        F  0.08905858  0.30647081  0.52992528    -0.13300
F734        F  0.09118026  0.30284790  0.96399458    -0.15700
F735        F  0.27307655  0.42015070  0.53134107    -0.15700
F736        F  0.27500124  0.41741409  0.96565765    -0.13300
C737        C  0.03826796  0.23157880  0.88112642     0.24700
C738        C  0.06578200  0.28582728  0.88423038    -0.23400
C739        C  0.03775892  0.31183595  0.88766554     0.19600
C740        C  0.98374733  0.28448849  0.88719938     0.24600
C741        C  0.95625992  0.23035223  0.88356304    -0.23400
C742        C  0.98392676  0.20401494  0.88093201     0.19500
F743        F  0.95838195  0.15182400  0.87689333    -0.13300
F744        F  0.06372316  0.20535436  0.87683840    -0.15700
F745        F  0.95823196  0.31097921  0.89103269    -0.15700
F746        F  0.06274819  0.36397676  0.89200256    -0.13300
C747        C  0.77065421  0.98111753  0.64039921     0.24700
C748        C  0.75105546  0.95141959  0.61196553    -0.23400
C749        C  0.76113945  0.97696218  0.58189400     0.19600
C750        C  0.78650267  0.03117823  0.58064254     0.24600
C751        C  0.80203621  0.06054989  0.60941907    -0.23400
C752        C  0.79589567  0.03518227  0.63913523     0.19500
F753        F  0.81226995  0.06279918  0.66715284    -0.13300
F754        F  0.76307184  0.95755767  0.66963510    -0.15700
F755        F  0.79143387  0.05451689  0.55159533    -0.15700
F756        F  0.74230985  0.94962950  0.55397615    -0.13300
C757        C  0.68642128  0.81300147  0.51872130     0.24700
C758        C  0.66053644  0.83328047  0.53642638    -0.23400
C759        C  0.63371384  0.85354473  0.51978836     0.19600
C760        C  0.63230853  0.85324055  0.98619959     0.24600
C761        C  0.65876786  0.83361314  0.96841862    -0.23400
C762        C  0.68561754  0.81336881  0.98502106     0.19500
F763        F  0.71025124  0.79271046  0.96857898    -0.13300
F764        F  0.71104389  0.79148349  0.53414849    -0.15700
F765        F  0.60718583  0.87419937  0.97074054    -0.15700
F766        F  0.60972137  0.87483460  0.53633624    -0.13300
C767        C  0.76634833  0.47327558  0.66186553     0.24700
C768        C  0.73354408  0.46727790  0.68794882    -0.23400
C769        C  0.72539861  0.50844213  0.69567337     0.19600
C770        C  0.74882780  0.55419745  0.67777930     0.24600
C771        C  0.77888565  0.55940922  0.64992186    -0.23400
C772        C  0.78871745  0.51866017  0.64313436     0.19500
F773        F  0.82089725  0.52304852  0.61854628    -0.13300
F774        F  0.77661372  0.43513531  0.65429812    -0.15700
F775        F  0.74493165  0.59413014  0.69009306    -0.15700
F776        F  0.69687385  0.50588853  0.72202450    -0.13300
C777        C  0.72901406  0.69760500  0.60300069     0.24700
C778        C  0.78249384  0.72185070  0.60916078    -0.23400
C779        C  0.81060731  0.77588956  0.61358692     0.19600
C780        C  0.78512214  0.80455899  0.61379720     0.24600
C781        C  0.73113657  0.77935465  0.61011593    -0.23400
C782        C  0.70361133  0.72589719  0.60379212     0.19500
F783        F  0.65182075  0.70090654  0.59834847    -0.13300
F784        F  0.70102091  0.64601908  0.59661961    -0.15700
F785        F  0.81273539  0.85639363  0.61929509    -0.15700
F786        F  0.86204034  0.80060843  0.61952322    -0.13300
C787        C  0.97299134  0.68999363  0.61031305     0.24700
C788        C  0.94405262  0.71520513  0.61239933    -0.23400
C789        C  0.97058466  0.76965405  0.61298739     0.19600
C790        C  0.02484245  0.79825096  0.61298903     0.24600
C791        C  0.05353526  0.77283829  0.61219290    -0.23400
C792        C  0.02700250  0.71843322  0.61024412     0.19500
F793        F  0.05339486  0.69265480  0.60745447    -0.13300
F794        F  0.94896338  0.63762832  0.60758362    -0.15700
F795        F  0.04923709  0.85068260  0.61500890    -0.15700
F796        F  0.94421845  0.79532465  0.61475876    -0.13300
C797        C  0.12326700  0.80661240  0.98371120     0.24700
C798        C  0.16880864  0.82569856  0.96536793    -0.23400
C799        C  0.21671199  0.84763935  0.98146479     0.19600
C800        C  0.21936671  0.84974228  0.51564015     0.24600
C801        C  0.17360426  0.82932780  0.53398942    -0.23400
C802        C  0.12584376  0.80817658  0.51775538     0.19500
F803        F  0.08084827  0.78724801  0.53467080    -0.13300
F804        F  0.07642960  0.78463667  0.96885899    -0.15700
F805        F  0.26618285  0.87267430  0.53055918    -0.15700
F806        F  0.26149093  0.86860523  0.96429519    -0.13300
C807        C  0.50282735  0.27403221  0.83297933     0.24700
C808        C  0.51716320  0.24165749  0.81689570    -0.23400
C809        C  0.48970480  0.18838608  0.82370295     0.19600
C810        C  0.44615825  0.16740049  0.84399243     0.24600
C811        C  0.42768776  0.19903500  0.85698725    -0.23400
C812        C  0.45969121  0.25323088  0.85342538     0.19500
F813        F  0.44952291  0.28658242  0.86978595    -0.13300
F814        F  0.53081352  0.32620421  0.82903912    -0.15700
F815        F  0.42396670  0.11657068  0.85175246    -0.15700
F816        F  0.50393373  0.15612426  0.80994272    -0.13300
C817        C  0.22234096  0.19638898  0.88826273     0.24700
C818        C  0.27646683  0.22014911  0.89018749    -0.23400
C819        C  0.30583504  0.27420530  0.89430200     0.19600
C820        C  0.28211671  0.30416887  0.89421816     0.24600
C821        C  0.22828491  0.28103287  0.88995306    -0.23400
C822        C  0.19844352  0.22661750  0.88817504     0.19500
F823        F  0.14646677  0.20264573  0.88503000    -0.13300
F824        F  0.19275842  0.14418719  0.88510162    -0.15700
F825        F  0.31200779  0.35612281  0.89870408    -0.15700
F826        F  0.35778808  0.29819919  0.89890285    -0.13300
C827        C  0.23518752  0.01805202  0.91474363     0.24700
C828        C  0.25067611  0.04580896  0.88547318    -0.23400
C829        C  0.23421565  0.01833838  0.85597473     0.19600
C830        C  0.20604634  0.96412213  0.85575767     0.24600
C831        C  0.19384814  0.93626099  0.88503593    -0.23400
C832        C  0.20705461  0.96384010  0.91453756     0.19500
F833        F  0.19721975  0.93859616  0.94327595    -0.13300
F834        F  0.25151646  0.04301657  0.94362603    -0.15700
F835        F  0.19247888  0.93880812  0.82683813    -0.15700
F836        F  0.24731450  0.04398405  0.82725631    -0.13300
C837        C  0.71277162  0.52664115  0.84605107     0.24700
C838        C  0.76413920  0.54913719  0.85781848    -0.23400
C839        C  0.78971922  0.52063167  0.85337176     0.19600
C840        C  0.76845635  0.47641895  0.83365333     0.24600
C841        C  0.71989667  0.45784975  0.81897662    -0.23400
C842        C  0.69147406  0.48225305  0.82645167     0.19500
F843        F  0.64326311  0.46400598  0.81414059    -0.13300
F844        F  0.68148329  0.54530635  0.85452568    -0.15700
F845        F  0.79543446  0.45154720  0.82911076    -0.15700
F846        F  0.83555723  0.53534059  0.86821722    -0.13300
C847        C  0.82963040  0.60391004  0.98466214     0.24700
C848        C  0.81490429  0.63534216  0.96784912    -0.23400
C849        C  0.80168926  0.66722993  0.98555368     0.19600
C850        C  0.80425560  0.66909370  0.51963259     0.24600
C851        C  0.81896644  0.63789175  0.53662982    -0.23400
C852        C  0.83177020  0.60545753  0.51910799     0.19500
F853        F  0.84722554  0.57575623  0.53487495    -0.13300
F854        F  0.84409379  0.57386004  0.96817856    -0.15700
F855        F  0.78986269  0.69939571  0.53582624    -0.15700
F856        F  0.78567620  0.69670085  0.97010869    -0.13300
C857        C  0.95943480  0.68323178  0.89297283     0.24700
C858        C  0.93158485  0.70928374  0.88969750    -0.23400
C859        C  0.95892293  0.76376738  0.88876834     0.19600
C860        C  0.01324470  0.79148634  0.88919544     0.24600
C861        C  0.04086742  0.76503895  0.89088663    -0.23400
C862        C  0.01330355  0.71072356  0.89371546     0.19500
F863        F  0.03859173  0.68406082  0.89769419    -0.13300
F864        F  0.93439931  0.63091013  0.89616826    -0.15700
F865        F  0.03871628  0.84387320  0.88665015    -0.15700
F866        F  0.93332407  0.79018001  0.88636072    -0.13300
C867        C  0.69859865  0.72617778  0.90675805     0.24700
C868        C  0.72544818  0.77742145  0.89545630    -0.23400
C869        C  0.77681663  0.79874847  0.88497010     0.19600
C870        C  0.80010829  0.76810536  0.88419994     0.24600
C871        C  0.77244386  0.71623332  0.89439521    -0.23400
C872        C  0.72192048  0.69592618  0.90630849     0.19500
F873        F  0.69477701  0.64626535  0.91697198    -0.13300
F874        F  0.64929591  0.70519032  0.91777980    -0.15700
F875        F  0.84817371  0.78802920  0.87154639    -0.15700
F876        F  0.80320230  0.84807816  0.87371319    -0.13300
C877        C  0.42198624  0.18388274  0.67616959     0.24700
C878        C  0.41943606  0.20792192  0.64720975    -0.23400
C879        C  0.46309329  0.25634179  0.63915068     0.19600
C880        C  0.50849550  0.27768899  0.65787700     0.24600
C881        C  0.51152757  0.25117887  0.68508327    -0.23400
C882        C  0.46770372  0.20423616  0.69396324     0.19500
F883        F  0.46776707  0.17925681  0.72143784    -0.13300
F884        F  0.37970153  0.14330420  0.68958961    -0.15700
F885        F  0.54948885  0.32412469  0.64927846    -0.15700
F886        F  0.46148538  0.28380077  0.61345692    -0.13300
C887        C  0.22963244  0.02673433  0.64235305     0.24700
C888        C  0.24600584  0.05466459  0.61312643    -0.23400
C889        C  0.23282633  0.02729284  0.58358440     0.19600
C890        C  0.20867169  0.97315185  0.58344143     0.24600
C891        C  0.19743548  0.94571029  0.61282491    -0.23400
C892        C  0.20567590  0.97275388  0.64220702     0.19500
F893        F  0.19295324  0.94706280  0.67090625    -0.13300
F894        F  0.23994981  0.05205599  0.67122998    -0.15700
F895        F  0.20116977  0.94824406  0.55462935    -0.15700
F896        F  0.24798326  0.05286874  0.55492335    -0.13300
C897        C  0.31120852  0.18598454  0.51628567     0.24700
C898        C  0.33689689  0.16641868  0.53480120    -0.23400
C899        C  0.36214427  0.14370254  0.51882892     0.19600
C900        C  0.36323677  0.14176473  0.98462627     0.24600
C901        C  0.33800404  0.16183824  0.96607167    -0.23400
C902        C  0.31173039  0.18343827  0.98206984     0.13900
F903        F  0.28777509  0.20402421  0.96492264    -0.13300
F904        F  0.28717578  0.20886613  0.53094559    -0.15700
F905        F  0.38699874  0.11865449  0.96990948    -0.15700
F906        F  0.38510290  0.12219004  0.53611128    -0.13300
C907        C  0.27250391  0.30857667  0.59961005     0.24700
C908        C  0.22000962  0.28548766  0.60822698    -0.23400
C909        C  0.19250540  0.23257593  0.61606488     0.19600
C910        C  0.21763121  0.20361280  0.61627019     0.24600
C911        C  0.27066331  0.22753178  0.60912802    -0.23400
C912        C  0.29761531  0.27995694  0.60019848     0.19500
F913        F  0.34841552  0.30345068  0.59195602    -0.13300
F914        F  0.29966479  0.35923995  0.59089521    -0.15700
F915        F  0.19087993  0.15295997  0.62495109    -0.15700
F916        F  0.14228879  0.20965037  0.62522698    -0.13300
C917        C  0.30168200  0.81034998  0.67727434     0.24700
C918        C  0.27690949  0.75701783  0.68397147    -0.23400
C919        C  0.22996607  0.72386179  0.66818389     0.19600
C920        C  0.20684806  0.74367755  0.64777755     0.24600
C921        C  0.22815735  0.79768886  0.64401909    -0.23400
C922        C  0.27808514  0.83042684  0.65721944     0.19500
F923        F  0.30572258  0.88148504  0.64979772    -0.13300
F924        F  0.34826793  0.84352454  0.69081013    -0.15700
F925        F  0.16326632  0.70946230  0.63164952    -0.15700
F926        F  0.20628280  0.67177936  0.67229755    -0.13300
C927        C  0.53652953  0.79703614  0.69873656     0.24700
C928        C  0.49012607  0.75443267  0.68767549    -0.23400
C929        C  0.49020992  0.73089665  0.65822349     0.19600
C930        C  0.53527683  0.75098213  0.63945878     0.24600
C931        C  0.58120219  0.79639985  0.64916115    -0.23400
C932        C  0.58172206  0.81688032  0.68023775     0.19500
F933        F  0.62639724  0.85364957  0.69411176    -0.13300
F934        F  0.53902626  0.81774265  0.72852770    -0.15700
F935        F  0.53406473  0.72466052  0.61227495    -0.15700
F936        F  0.44655981  0.68829122  0.64753730    -0.13300
C937        C  0.26429737  0.81159690  0.84963612     0.24700
C938        C  0.21075573  0.78054825  0.85592024    -0.23400
C939        C  0.18633089  0.72769845  0.84675449     0.19600
C940        C  0.21202770  0.70927574  0.82747903     0.24600
C941        C  0.26370279  0.74221337  0.81811164    -0.23400
C942        C  0.29008928  0.79306893  0.83041788     0.19500
F943        F  0.34110311  0.82506107  0.82403997    -0.13300
F944        F  0.29227184  0.85988183  0.86246235    -0.15700
F945        F  0.18555868  0.65908820  0.81754939    -0.15700
F946        F  0.13836827  0.69256733  0.85741973    -0.13300
C947        C  0.57601688  0.77594221  0.82470090     0.24700
C948        C  0.57645833  0.79657362  0.85567134    -0.23400
C949        C  0.53391893  0.80273231  0.86402110     0.19600
C950        C  0.49011843  0.78290811  0.84391744     0.24600
C951        C  0.48814711  0.75720504  0.81491441    -0.23400
C952        C  0.53207899  0.75512022  0.80524429     0.19500
F953        F  0.53355926  0.73474310  0.77602203    -0.13300
F954        F  0.61880481  0.77759402  0.81222084    -0.15700
F955        F  0.44965458  0.78865113  0.85293842    -0.15700
F956        F  0.53514581  0.82963838  0.89089445    -0.13300
C957        C  0.27704816  0.47370816  0.65246863     0.24700
C958        C  0.22510959  0.45100350  0.64197978    -0.23400
C959        C  0.19961341  0.47936992  0.64754256     0.19600
C960        C  0.22189549  0.52369706  0.66725347     0.24600
C961        C  0.27117663  0.54220293  0.68098540    -0.23400
C962        C  0.29911221  0.51765479  0.67233005     0.19500
F963        F  0.34835937  0.53628402  0.68287519    -0.13300
F964        F  0.30796437  0.45527797  0.64256238    -0.15700
F965        F  0.19452098  0.54775999  0.67329889    -0.15700
F966        F  0.15320825  0.46488886  0.63360168    -0.13300
C967        C  0.30752420  0.51611531  0.82506967     0.24700
C968        C  0.27815247  0.53865676  0.81552068    -0.23400
C969        C  0.22779511  0.51778972  0.82798681     0.19600
C970        C  0.20612170  0.47351009  0.84750144     0.24600
C971        C  0.23292580  0.44667250  0.85371651    -0.23400
C972        C  0.28559110  0.47132511  0.84431204     0.19500
F973        F  0.31709568  0.45397938  0.85472708    -0.13300
F974        F  0.35744015  0.53677869  0.81536615    -0.15700
F975        F  0.15893400  0.45763655  0.86073851    -0.15700
F976        F  0.19939116  0.54063082  0.82166193    -0.13300
loop_ 
_geom_bond_atom_site_label_1 
_geom_bond_atom_site_label_2 
_geom_bond_distance 
_geom_bond_site_symmetry_2 
_ccdc_geom_bond_type 
O1           C16   1.260       .  A
O1           Al9   1.903       .  S
C2           O12   1.262       .  A
C2            O3   1.261       .  A
C2          C463   1.480       .  S
O3           Al5   1.901       .  S
O4            C6   1.262       .  A
O4           Al5   1.904       .  S
Al5          O13   1.901       .  S
Al5          O15   1.908       .  S
Al5          O14   1.784       .  S
C6           O19   1.265       .  A
C6          C480   1.491       .  S
O7           C17   1.259       .  A
O7           Al9   1.890       .  S
O8           C21   1.264       .  A
O8          Al18   1.911       .  S
Al9          O22   1.914       .  S
Al9          O19   1.921       .  S
Al9          O14   1.782       .  S
O10          C17   1.262       .  A
O10         Al18   1.914       .  S
O11          C20   1.264       .  A
O11         Al18   1.921       .  S
O12         Al18   1.912       .  S
O13          C20   1.262       .  A
O14         Al18   1.793       .  S
O15          C16   1.261       .  A
C16         C473   1.489       .  S
C17         C453   1.484       .  S
C20         C440   1.479       .  S
C21          O22   1.264       .  A
C21         C430   1.489       .  S
C23          C24   1.541       .  S
C23          C29   1.533       .  S
C23          C27   1.543       .  S
C23         C390   1.540       .  S
C24          H31   1.082       .  S
C24          C25   1.364       .  D
C25          C26   1.537       .  S
C25         C400   1.486       .  S
C26          C30   1.536       .  S
C26          C28   1.541       .  S
C26          H32   1.111       .  S
C27          H33   1.086       .  S
C27          C28   1.370       .  D
C28         C410   1.483       .  S
C29          H34   1.087       .  S
C29          C30   1.365       .  D
C30         C423   1.480       .  S
C35          C36   1.541       .  S
C35          C41   1.542       .  S
C35          C39   1.539       .  S
C35         C350   1.542       .  S
C36          H43   1.086       .  S
C36          C37   1.369       .  D
C37          C38   1.538       .  S
C37         C370   1.487       .  S
C38          C42   1.537       .  S
C38          C40   1.538       .  S
C38          H44   1.111       .  S
C39          H45   1.086       .  S
C39          C40   1.367       .  D
C40         C360   1.483       .  S
C41          H46   1.082       .  S
C41          C42   1.364       .  D
C42         C383   1.480       .  S
C47          C48   1.542       .  S
C47          C53   1.539       .  S
C47          C51   1.539       .  S
C47         C323   1.541       .  S
C48          H55   1.085       .  S
C48          C49   1.366       .  D
C49          C50   1.540       .  S
C49         C330   1.490       .  S
C50          C54   1.545       .  S
C50          C52   1.537       .  S
C50          H56   1.110       .  S
C51          H57   1.086       .  S
C51          C52   1.368       .  D
C52         C413   1.484       .  S
C53          H58   1.082       .  S
C53          C54   1.367       .  D
C54         C340   1.489       .  S
C59          C60   1.540       .  S
C59          C65   1.537       .  S
C59          C63   1.536       .  S
C59         C450   1.535       .  S
C60          H67   1.085       .  S
C60          C61   1.369       .  D
C61          C62   1.545       .  S
C61         C343   1.490       .  S
C62          C66   1.540       .  S
C62          C64   1.537       .  S
C62          H68   1.110       .  S
C63          H69   1.086       .  S
C63          C64   1.365       .  D
C64         C310   1.482       .  S
C65          H70   1.083       .  S
C65          C66   1.363       .  D
C66         C373   1.486       .  S
C71          C72   1.543       .  S
C71          C77   1.543       .  S
C71          C75   1.540       .  S
C71         C433   1.544       .  S
C72          H79   1.085       .  S
C72          C73   1.365       .  D
C73          C74   1.537       .  S
C73         C303   1.485       .  S
C74          C78   1.537       .  S
C74          C76   1.536       .  S
C74          H80   1.110       .  S
C75          H81   1.086       .  S
C75          C76   1.369       .  D
C76         C313   1.484       .  S
C77          H82   1.082       .  S
C77          C78   1.368       .  D
C78         C403   1.485       .  S
C83          C84   1.541       .  S
C83          C89   1.530       .  S
C83          C87   1.545       .  S
C83         C283   1.542       .  S
C84          H91   1.080       .  S
C84          C85   1.364       .  D
C85          C86   1.540       .  S
C85         C290   1.492       .  S
C86          C90   1.545       .  S
C86          C88   1.541       .  S
C86          H92   1.111       .  S
C87          H93   1.086       .  S
C87          C88   1.369       .  D
C88         C363   1.482       .  S
C89          H94   1.086       .  S
C89          C90   1.366       .  D
C90         C300   1.490       .  S
C95          C96   1.542       .  S
C95         C101   1.532       .  S
C95          C99   1.543       .  S
C95         C443   1.536       .  S
C96         H103   1.084       .  S
C96          C97   1.367       .  D
C97          C98   1.539       .  S
C97         C260   1.487       .  S
C98         C102   1.538       .  S
C98         C100   1.536       .  S
C98         H104   1.111       .  S
C99         H105   1.085       .  S
C99         C100   1.365       .  D
C100        C270   1.476       .  S
C101        H106   1.087       .  S
C101        C102   1.366       .  D
C102        C293   1.484       .  S
C107        C108   1.539       .  S
C107        C113   1.540       .  S
C107        C111   1.536       .  S
C107        C483   1.543       .  S
C108        H115   1.085       .  S
C108        C109   1.366       .  D
C109        C110   1.546       .  S
C109        C250   1.492       .  S
C110        C114   1.547       .  S
C110        C112   1.540       .  S
C110        H116   1.110       .  S
C111        H117   1.086       .  S
C111        C112   1.367       .  D
C112        C240   1.484       .  S
C113        H118   1.083       .  S
C113        C114   1.370       .  D
C114        C333   1.495       .  S
C119        C120   1.540       .  S
C119        C125   1.533       .  S
C119        C123   1.541       .  S
C119        C210   1.536       .  S
C120        H127   1.082       .  S
C120        C121   1.364       .  D
C121        C122   1.539       .  S
C121        C230   1.484       .  S
C122        C126   1.540       .  S
C122        C124   1.538       .  S
C122        H128   1.111       .  S
C123        H129   1.086       .  S
C123        C124   1.367       .  D
C124        C223   1.480       .  S
C125        H130   1.086       .  S
C125        C126   1.366       .  D
C126        C253   1.486       .  S
C131        C132   1.540       .  S
C131        C137   1.531       .  S
C131        C135   1.544       .  S
C131        C460   1.534       .  S
C132        H139   1.086       .  S
C132        C133   1.362       .  D
C133        C134   1.534       .  S
C133        C380   1.477       .  S
C134        C138   1.538       .  S
C134        C136   1.537       .  S
C134        H140   1.111       .  S
C135        H141   1.085       .  S
C135        C136   1.369       .  D
C136        C273   1.477       .  S
C137        H142   1.087       .  S
C137        C138   1.366       .  D
C138        C233   1.483       .  S
C143        C144   1.540       .  S
C143        C149   1.533       .  S
C143        C147   1.547       .  S
C143        C190   1.541       .  S
C144        H151   1.086       .  S
C144        C145   1.367       .  D
C145        C146   1.539       .  S
C145        C200   1.487       .  S
C146        C150   1.539       .  S
C146        C148   1.534       .  S
C146        H152   1.110       .  S
C147        H153   1.081       .  S
C147        C148   1.367       .  D
C148        C220   1.480       .  S
C149        H154   1.087       .  S
C149        C150   1.366       .  D
C150        C263   1.484       .  S
C155        C156   1.540       .  S
C155        C161   1.538       .  S
C155        C159   1.539       .  S
C155        C470   1.540       .  S
C156        H163   1.083       .  S
C156        C157   1.364       .  D
C157        C158   1.541       .  S
C157        C420   1.483       .  S
C158        C162   1.542       .  S
C158        C160   1.537       .  S
C158        H164   1.110       .  S
C159        H165   1.086       .  S
C159        C160   1.369       .  D
C160        C243   1.485       .  S
C161        H166   1.085       .  S
C161        C162   1.367       .  D
C162        C203   1.489       .  S
O167        C182   1.261       .  A
O167       Al175   1.911       .  S
C168        O178   1.261       .  A
C168        O169   1.262       .  A
C168        C213   1.481       .  S
O169       Al171   1.909       .  S
O170        C172   1.264       .  A
O170       Al171   1.909       .  S
Al171       O179   1.911       .  S
Al171       O181   1.904       .  S
Al171       O180   1.786       .  S
C172        O185   1.264       .  A
C172        C320   1.485       .  S
O173        C183   1.261       .  A
O173       Al175   1.900       .  S
O174        C187   1.263       .  A
O174       Al184   1.912       .  S
Al175       O188   1.903       .  S
Al175       O185   1.912       .  S
Al175       O180   1.784       .  S
O176        C183   1.263       .  A
O176       Al184   1.917       .  S
O177        C186   1.264       .  A
O177       Al184   1.919       .  S
O178       Al184   1.903       .  S
O179        C186   1.263       .  A
O180       Al184   1.787       .  S
O181        C182   1.261       .  A
C182        C393   1.482       .  S
C183        C353   1.486       .  S
C186        C193   1.477       .  S
C187        O188   1.262       .  A
C187        C280   1.484       .  S
C189        C190   1.415       .  A
C189        C194   1.397       .  A
C189        F196   1.358       .  S
C190        C191   1.421       .  A
C191        C192   1.405       .  A
C191        F198   1.354       .  S
C192        C193   1.401       .  A
C192        F197   1.358       .  S
C193        C194   1.403       .  A
C194        F195   1.358       .  S
C199        C200   1.407       .  A
C199        C204   1.394   1_655  A
C199        F206   1.358       .  S
C200        C201   1.407       .  A
C201        C202   1.405   1_655  A
C201        F208   1.357       .  S
C202        C203   1.407       .  A
C202        F207   1.354       .  S
C203        C204   1.408       .  A
C204        F205   1.358       .  S
C209        C210   1.416       .  A
C209        C214   1.395       .  A
C209        F216   1.355       .  S
C210        C211   1.416       .  A
C211        C212   1.401       .  A
C211        F218   1.358       .  S
C212        C213   1.404       .  A
C212        F217   1.358       .  S
C213        C214   1.406       .  A
C214        F215   1.359       .  S
C219        C220   1.405       .  A
C219        C712   1.397   1_554  A
C219        F226   1.358       .  S
C220        C221   1.407       .  A
C221        C710   1.399   1_554  A
C221        F228   1.358       .  S
C222        C223   1.405       .  A
C222        C709   1.399       .  A
C222        F227   1.358       .  S
C223        C224   1.406       .  A
C224        C707   1.397       .  A
C224        F225   1.358       .  S
C229        C230   1.406       .  A
C229        C234   1.401   1_545  A
C229        F236   1.357       .  S
C230        C231   1.406       .  A
C231        C232   1.397   1_545  A
C231        F238   1.358       .  S
C232        C233   1.405       .  A
C232        F237   1.358       .  S
C233        C234   1.407       .  A
C234        F235   1.358       .  S
C239        C240   1.406       .  A
C239        C732   1.401       .  A
C239        F246   1.358       .  S
C240        C241   1.407       .  A
C241        C730   1.399       .  A
C241        F248   1.358       .  S
C242        C243   1.406       .  A
C242        C729   1.400   1_554  A
C242        F247   1.358       .  S
C243        C244   1.407       .  A
C244        C727   1.401   1_554  A
C244        F245   1.358       .  S
C249        C250   1.406       .  A
C249        C254   1.405   1_455  A
C249        F256   1.352       .  S
C250        C251   1.409       .  A
C251        C252   1.397   1_455  A
C251        F258   1.358       .  S
C252        C253   1.406       .  A
C252        F257   1.358       .  S
C253        C254   1.405       .  A
C254        F255   1.358       .  S
C259        C260   1.406       .  A
C259        C264   1.399   1_565  A
C259        F266   1.358       .  S
C260        C261   1.408       .  A
C261        C262   1.402   1_565  A
C261        F268   1.357       .  S
C262        C263   1.406       .  A
C262        F267   1.358       .  S
C263        C264   1.405       .  A
C264        F265   1.358       .  S
C269        C270   1.404       .  A
C269        C762   1.394   1_554  A
C269        F276   1.358       .  S
C270        C271   1.406       .  A
C271        C760   1.398   1_554  A
C271        F278   1.358       .  S
C272        C273   1.405       .  A
C272        C759   1.398       .  A
C272        F277   1.358       .  S
C273        C274   1.406       .  A
C274        C757   1.395       .  A
C274        F275   1.357       .  S
C279        C280   1.405       .  A
C279        C284   1.405       .  A
C279        F286   1.358       .  S
C280        C281   1.405       .  A
C281        C282   1.394       .  A
C281        F288   1.359       .  S
C282        C283   1.417       .  A
C282        F287   1.354       .  S
C283        C284   1.417       .  A
C284        F285   1.358       .  S
C289        C290   1.408       .  A
C289        C294   1.394       .  A
C289        F296   1.358       .  S
C290        C291   1.407       .  A
C291        C292   1.405       .  A
C291        F298   1.352       .  S
C292        C293   1.405       .  A
C292        F297   1.358       .  S
C293        C294   1.405       .  A
C294        F295   1.358       .  S
C299        C300   1.408       .  A
C299        C304   1.397   1_655  A
C299        F306   1.358       .  S
C300        C301   1.406       .  A
C301        C302   1.403   1_655  A
C301        F308   1.351       .  S
C302        C303   1.404       .  A
C302        F307   1.358       .  S
C303        C304   1.407       .  A
C304        F305   1.358       .  S
C309        C310   1.404       .  A
C309        C802   1.398       .  A
C309        F316   1.358       .  S
C310        C311   1.407       .  A
C311        C800   1.400       .  A
C311        F318   1.358       .  S
C312        C313   1.407       .  A
C312        C799   1.400   1_554  A
C312        F317   1.358       .  S
C313        C314   1.407       .  A
C314        C797   1.398   1_554  A
C314        F315   1.357       .  S
C319        C320   1.406       .  A
C319        C324   1.398       .  A
C319        F326   1.358       .  S
C320        C321   1.405       .  A
C321        C322   1.403       .  A
C321        F328   1.358       .  S
C322        C323   1.418       .  A
C322        F327   1.356       .  S
C323        C324   1.414       .  A
C324        F325   1.358       .  S
C329        C330   1.405       .  A
C329        C334   1.407       .  A
C329        F336   1.357       .  S
C330        C331   1.407       .  A
C331        C332   1.396       .  A
C331        F338   1.358       .  S
C332        C333   1.408       .  A
C332        F337   1.358       .  S
C333        C334   1.408       .  A
C334        F335   1.351       .  S
C339        C340   1.406       .  A
C339        C344   1.400   1_545  A
C339        F346   1.357       .  S
C340        C341   1.409       .  A
C341        C342   1.400   1_545  A
C341        F348   1.358       .  S
C342        C343   1.408       .  A
C342        F347   1.358       .  S
C343        C344   1.408       .  A
C344        F345   1.357       .  S
C349        C350   1.418       .  A
C349        C354   1.401       .  A
C349        F356   1.355       .  S
C350        C351   1.415       .  A
C351        C352   1.401       .  A
C351        F358   1.358       .  S
C352        C353   1.405       .  A
C352        F357   1.358       .  S
C353        C354   1.406       .  A
C354        F355   1.358       .  S
C359        C360   1.407       .  A
C359        C852   1.402       .  A
C359        F366   1.358       .  S
C360        C361   1.405       .  A
C361        C850   1.397       .  A
C361        F368   1.357       .  S
C362        C363   1.405       .  A
C362        C849   1.397   1_554  A
C362        F367   1.357       .  S
C363        C364   1.407       .  A
C364        C847   1.401   1_554  A
C364        F365   1.358       .  S
C369        C370   1.406       .  A
C369        C374   1.393   1_655  A
C369        F376   1.358       .  S
C370        C371   1.408       .  A
C371        C372   1.405   1_655  A
C371        F378   1.354       .  S
C372        C373   1.405       .  A
C372        F377   1.357       .  S
C373        C374   1.408       .  A
C374        F375   1.358       .  S
C379        C380   1.404       .  A
C379        C384   1.394       .  A
C379        F386   1.358       .  S
C380        C381   1.404       .  A
C381        C382   1.404       .  A
C381        F388   1.358       .  S
C382        C383   1.406       .  A
C382        F387   1.354       .  S
C383        C384   1.404       .  A
C384        F385   1.358       .  S
C389        C390   1.417       .  A
C389        C394   1.393       .  A
C389        F396   1.355       .  S
C390        C391   1.417       .  A
C391        C392   1.406       .  A
C391        F398   1.358       .  S
C392        C393   1.404       .  A
C392        F397   1.358       .  S
C393        C394   1.404       .  A
C394        F395   1.359       .  S
C399        C400   1.408       .  A
C399        C404   1.397   1_545  A
C399        F406   1.358       .  S
C400        C401   1.406       .  A
C401        C402   1.401   1_545  A
C401        F408   1.357       .  S
C402        C403   1.408       .  A
C402        F407   1.357       .  S
C403        C404   1.405       .  A
C404        F405   1.358       .  S
C409        C410   1.405       .  A
C409        C902   1.399   1_554  A
C409        F416   1.358       .  S
C410        C411   1.407       .  A
C411        C900   1.401   1_554  A
C411        F418   1.358       .  S
C412        C413   1.406       .  A
C412        C899   1.401       .  A
C412        F417   1.358       .  S
C413        C414   1.407       .  A
C414        C897   1.398       .  A
C414        F415   1.357       .  S
C419        C420   1.406       .  A
C419        C424   1.395       .  A
C419        F426   1.358       .  S
C420        C421   1.405       .  A
C421        C422   1.405       .  A
C421        F428   1.354       .  S
C422        C423   1.405       .  A
C422        F427   1.357       .  S
C423        C424   1.404       .  A
C424        F425   1.358       .  S
C429        C430   1.407       .  A
C429        C434   1.406       .  A
C429        F436   1.358       .  S
C430        C431   1.406       .  A
C431        C432   1.398       .  A
C431        F438   1.358       .  S
C432        C433   1.415       .  A
C432        F437   1.358       .  S
C433        C434   1.418       .  A
C434        F435   1.356       .  S
C439        C440   1.405       .  A
C439        C444   1.398       .  A
C439        F446   1.359       .  S
C440        C441   1.402       .  A
C441        C442   1.401       .  A
C441        F448   1.358       .  S
C442        C443   1.417       .  A
C442        F447   1.357       .  S
C443        C444   1.415       .  A
C444        F445   1.356       .  S
C449        C450   1.414       .  A
C449        C454   1.399       .  A
C449        F456   1.357       .  S
C450        C451   1.417       .  A
C451        C452   1.396       .  A
C451        F458   1.356       .  S
C452        C453   1.406       .  A
C452        F457   1.358       .  S
C453        C454   1.407       .  A
C454        F455   1.358       .  S
C459        C460   1.413       .  A
C459        C464   1.391       .  A
C459        F466   1.357       .  S
C460        C461   1.418       .  A
C461        C462   1.405       .  A
C461        F468   1.357       .  S
C462        C463   1.404       .  A
C462        F467   1.358       .  S
C463        C464   1.405       .  A
C464        F465   1.359       .  S
C469        C470   1.415       .  A
C469        C474   1.398       .  A
C469        F476   1.356       .  S
C470        C471   1.416       .  A
C471        C472   1.402       .  A
C471        F478   1.357       .  S
C472        C473   1.407       .  A
C472        F477   1.358       .  S
C473        C474   1.408       .  A
C474        F475   1.358       .  S
C479        C480   1.408       .  A
C479        C484   1.404       .  A
C479        F486   1.358       .  S
C480        C481   1.406       .  A
C481        C482   1.400       .  A
C481        F488   1.358       .  S
C482        C483   1.416       .  A
C482        F487   1.357       .  S
C483        C484   1.417       .  A
C484        F485   1.356       .  S
O489        C504   1.260       .  A
O489       Al497   1.902       .  S
C490        O500   1.262       .  A
C490        O491   1.261       .  A
C490        C951   1.479       .  S
O491       Al493   1.901       .  S
O492        C494   1.263       .  A
O492       Al493   1.905       .  S
Al493       O501   1.901       .  S
Al493       O503   1.907       .  S
Al493       O502   1.783       .  S
C494        O507   1.265       .  A
C494        C968   1.491       .  S
O495        C505   1.259       .  A
O495       Al497   1.889       .  S
O496        C509   1.264       .  A
O496       Al506   1.909       .  S
Al497       O510   1.915       .  S
Al497       O507   1.923       .  S
Al497       O502   1.782       .  S
O498        C505   1.262       .  A
O498       Al506   1.914       .  S
O499        C508   1.264       .  A
O499       Al506   1.921       .  S
O500       Al506   1.911       .  S
O501        C508   1.262       .  A
O502       Al506   1.792       .  S
O503        C504   1.261       .  A
C504        C961   1.488       .  S
C505        C941   1.483       .  S
C508        C928   1.479       .  S
C509        O510   1.264       .  A
C509        C918   1.488       .  S
C511        C512   1.541       .  S
C511        C517   1.534       .  S
C511        C515   1.543       .  S
C511        C878   1.540       .  S
C512        H519   1.081       .  S
C512        C513   1.364       .  D
C513        C514   1.537       .  S
C513        C888   1.486       .  S
C514        C518   1.536       .  S
C514        C516   1.540       .  S
C514        H520   1.111       .  S
C515        H521   1.086       .  S
C515        C516   1.370       .  D
C516        C898   1.483       .  S
C517        H522   1.087       .  S
C517        C518   1.365       .  D
C518        C911   1.480       .  S
C523        C524   1.541       .  S
C523        C529   1.542       .  S
C523        C527   1.538       .  S
C523        C838   1.541       .  S
C524        H531   1.086       .  S
C524        C525   1.368       .  D
C525        C526   1.538       .  S
C525        C858   1.486       .  S
C526        C530   1.537       .  S
C526        C528   1.538       .  S
C526        H532   1.111       .  S
C527        H533   1.086       .  S
C527        C528   1.367       .  D
C528        C848   1.482       .  S
C529        H534   1.082       .  S
C529        C530   1.365       .  D
C530        C871   1.480       .  S
C535        C536   1.542       .  S
C535        C541   1.539       .  S
C535        C539   1.539       .  S
C535        C811   1.541       .  S
C536        H543   1.085       .  S
C536        C537   1.366       .  D
C537        C538   1.540       .  S
C537        C818   1.490       .  S
C538        C542   1.544       .  S
C538        C540   1.537       .  S
C538        H544   1.110       .  S
C539        H545   1.086       .  S
C539        C540   1.368       .  D
C540        C901   1.484       .  S
C541        H546   1.082       .  S
C541        C542   1.366       .  D
C542        C828   1.488       .  S
C547        C548   1.540       .  S
C547        C553   1.538       .  S
C547        C551   1.536       .  S
C547        C938   1.535       .  S
C548        H555   1.085       .  S
C548        C549   1.369       .  D
C549        C550   1.544       .  S
C549        C831   1.489       .  S
C550        C554   1.540       .  S
C550        C552   1.537       .  S
C550        H556   1.110       .  S
C551        H557   1.086       .  S
C551        C552   1.365       .  D
C552        C798   1.482       .  S
C553        H558   1.083       .  S
C553        C554   1.363       .  D
C554        C861   1.485       .  S
C559        C560   1.543       .  S
C559        C565   1.542       .  S
C559        C563   1.540       .  S
C559        C921   1.544       .  S
C560        H567   1.085       .  S
C560        C561   1.365       .  D
C561        C562   1.537       .  S
C561        C791   1.486       .  S
C562        C566   1.537       .  S
C562        C564   1.535       .  S
C562        H568   1.110       .  S
C563        H569   1.086       .  S
C563        C564   1.369       .  D
C564        C801   1.485       .  S
C565        H570   1.082       .  S
C565        C566   1.368       .  D
C566        C891   1.485       .  S
C571        C572   1.541       .  S
C571        C577   1.531       .  S
C571        C575   1.545       .  S
C571        C771   1.543       .  S
C572        H579   1.080       .  S
C572        C573   1.364       .  D
C573        C574   1.541       .  S
C573        C778   1.491       .  S
C574        C578   1.546       .  S
C574        C576   1.540       .  S
C574        H580   1.110       .  S
C575        H581   1.086       .  S
C575        C576   1.370       .  D
C576        C851   1.483       .  S
C577        H582   1.086       .  S
C577        C578   1.367       .  D
C578        C788   1.491       .  S
C583        C584   1.542       .  S
C583        C589   1.532       .  S
C583        C587   1.543       .  S
C583        C931   1.537       .  S
C584        H591   1.084       .  S
C584        C585   1.367       .  D
C585        C586   1.539       .  S
C585        C748   1.486       .  S
C586        C590   1.537       .  S
C586        C588   1.536       .  S
C586        H592   1.111       .  S
C587        H593   1.085       .  S
C587        C588   1.365       .  D
C588        C758   1.476       .  S
C589        H594   1.087       .  S
C589        C590   1.366       .  D
C590        C781   1.483       .  S
C595        C596   1.539       .  S
C595        C601   1.540       .  S
C595        C599   1.537       .  S
C595        C971   1.544       .  S
C596        H603   1.085       .  S
C596        C597   1.366       .  D
C597        C598   1.546       .  S
C597        C738   1.492       .  S
C598        C602   1.547       .  S
C598        C600   1.540       .  S
C598        H604   1.110       .  S
C599        H605   1.086       .  S
C599        C600   1.368       .  D
C600        C728   1.485       .  S
C601        H606   1.083       .  S
C601        C602   1.370       .  D
C602        C821   1.496       .  S
C607        C608   1.541       .  S
C607        C613   1.534       .  S
C607        C611   1.541       .  S
C607        C698   1.537       .  S
C608        H615   1.082       .  S
C608        C609   1.364       .  D
C609        C610   1.539       .  S
C609        C718   1.484       .  S
C610        C614   1.540       .  S
C610        C612   1.538       .  S
C610        H616   1.111       .  S
C611        H617   1.086       .  S
C611        C612   1.367       .  D
C612        C711   1.480       .  S
C613        H618   1.086       .  S
C613        C614   1.366       .  D
C614        C741   1.486       .  S
C619        C620   1.540       .  S
C619        C625   1.531       .  S
C619        C623   1.544       .  S
C619        C948   1.533       .  S
C620        H627   1.086       .  S
C620        C621   1.361       .  D
C621        C622   1.535       .  S
C621        C868   1.477       .  S
C622        C626   1.538       .  S
C622        C624   1.537       .  S
C622        H628   1.111       .  S
C623        H629   1.085       .  S
C623        C624   1.369       .  D
C624        C761   1.477       .  S
C625        H630   1.087       .  S
C625        C626   1.366       .  D
C626        C721   1.483       .  S
C631        C632   1.539       .  S
C631        C637   1.532       .  S
C631        C635   1.547       .  S
C631        C678   1.539       .  S
C632        H639   1.086       .  S
C632        C633   1.367       .  D
C633        C634   1.540       .  S
C633        C688   1.487       .  S
C634        C638   1.539       .  S
C634        C636   1.535       .  S
C634        H640   1.110       .  S
C635        H641   1.081       .  S
C635        C636   1.368       .  D
C636        C708   1.481       .  S
C637        H642   1.087       .  S
C637        C638   1.366       .  D
C638        C751   1.484       .  S
C643        C644   1.539       .  S
C643        C649   1.538       .  S
C643        C647   1.538       .  S
C643        C958   1.539       .  S
C644        H651   1.083       .  S
C644        C645   1.364       .  D
C645        C646   1.541       .  S
C645        C908   1.483       .  S
C646        C650   1.542       .  S
C646        C648   1.537       .  S
C646        H652   1.110       .  S
C647        H653   1.086       .  S
C647        C648   1.368       .  D
C648        C731   1.484       .  S
C649        H654   1.085       .  S
C649        C650   1.368       .  D
C650        C691   1.489       .  S
O655        C670   1.261       .  A
O655       Al663   1.911       .  S
C656        O666   1.261       .  A
C656        O657   1.262       .  A
C656        C701   1.482       .  S
O657       Al659   1.910       .  S
O658        C660   1.264       .  A
O658       Al659   1.908       .  S
Al659       O667   1.909       .  S
Al659       O669   1.904       .  S
Al659       O668   1.786       .  S
C660        O673   1.264       .  A
C660        C808   1.484       .  S
O661        C671   1.260       .  A
O661       Al663   1.899       .  S
O662        C675   1.263       .  A
O662       Al672   1.913       .  S
Al663       O676   1.903       .  S
Al663       O673   1.913       .  S
Al663       O668   1.784       .  S
O664        C671   1.263       .  A
O664       Al672   1.915       .  S
O665        C674   1.264       .  A
O665       Al672   1.918       .  S
O666       Al672   1.904       .  S
O667        C674   1.263       .  A
O668       Al672   1.788       .  S
O669        C670   1.261       .  A
C670        C881   1.482       .  S
C671        C841   1.485       .  S
C674        C681   1.476       .  S
C675        O676   1.262       .  A
C675        C768   1.486       .  S
C677        C678   1.414       .  A
C677        C682   1.396       .  A
C677        F684   1.358       .  S
C678        C679   1.420       .  A
C679        C680   1.404       .  A
C679        F686   1.354       .  S
C680        C681   1.401       .  A
C680        F685   1.358       .  S
C681        C682   1.403       .  A
C682        F683   1.358       .  S
C687        C688   1.407       .  A
C687        C692   1.394   1_655  A
C687        F694   1.358       .  S
C688        C689   1.407       .  A
C689        C690   1.404   1_655  A
C689        F696   1.357       .  S
C690        C691   1.407       .  A
C690        F695   1.354       .  S
C691        C692   1.408       .  A
C692        F693   1.358       .  S
C697        C698   1.416       .  A
C697        C702   1.395       .  A
C697        F704   1.355       .  S
C698        C699   1.416       .  A
C699        C700   1.401       .  A
C699        F706   1.358       .  S
C700        C701   1.404       .  A
C700        F705   1.358       .  S
C701        C702   1.406       .  A
C702        F703   1.359       .  S
C707        C708   1.405       .  A
C707        F714   1.358       .  S
C708        C709   1.407       .  A
C709        F716   1.358       .  S
C710        C711   1.405       .  A
C710        F715   1.358       .  S
C711        C712   1.406       .  A
C712        F713   1.358       .  S
C717        C718   1.406       .  A
C717        C722   1.401   1_545  A
C717        F724   1.357       .  S
C718        C719   1.406       .  A
C719        C720   1.398   1_545  A
C719        F726   1.358       .  S
C720        C721   1.405       .  A
C720        F725   1.358       .  S
C721        C722   1.407       .  A
C722        F723   1.358       .  S
C727        C728   1.406       .  A
C727        F734   1.358       .  S
C728        C729   1.407       .  A
C729        F736   1.358       .  S
C730        C731   1.406       .  A
C730        F735   1.358       .  S
C731        C732   1.407       .  A
C732        F733   1.358       .  S
C737        C738   1.406       .  A
C737        C742   1.405   1_455  A
C737        F744   1.352       .  S
C738        C739   1.409       .  A
C739        C740   1.397   1_455  A
C739        F746   1.358       .  S
C740        C741   1.405       .  A
C740        F745   1.358       .  S
C741        C742   1.405       .  A
C742        F743   1.358       .  S
C747        C748   1.406       .  A
C747        C752   1.398   1_565  A
C747        F754   1.358       .  S
C748        C749   1.408       .  A
C749        C750   1.402   1_565  A
C749        F756   1.357       .  S
C750        C751   1.406       .  A
C750        F755   1.358       .  S
C751        C752   1.405       .  A
C752        F753   1.358       .  S
C757        C758   1.404       .  A
C757        F764   1.358       .  S
C758        C759   1.406       .  A
C759        F766   1.358       .  S
C760        C761   1.405       .  A
C760        F765   1.358       .  S
C761        C762   1.405       .  A
C762        F763   1.356       .  S
C767        C768   1.405       .  A
C767        C772   1.405       .  A
C767        F774   1.358       .  S
C768        C769   1.406       .  A
C769        C770   1.395       .  A
C769        F776   1.359       .  S
C770        C771   1.418       .  A
C770        F775   1.354       .  S
C771        C772   1.417       .  A
C772        F773   1.358       .  S
C777        C778   1.408       .  A
C777        C782   1.394       .  A
C777        F784   1.358       .  S
C778        C779   1.407       .  A
C779        C780   1.406       .  A
C779        F786   1.353       .  S
C780        C781   1.405       .  A
C780        F785   1.358       .  S
C781        C782   1.404       .  A
C782        F783   1.358       .  S
C787        C788   1.409       .  A
C787        C792   1.397   1_655  A
C787        F794   1.358       .  S
C788        C789   1.406       .  A
C789        C790   1.403   1_655  A
C789        F796   1.352       .  S
C790        C791   1.405       .  A
C790        F795   1.357       .  S
C791        C792   1.407       .  A
C792        F793   1.358       .  S
C797        C798   1.404       .  A
C797        F804   1.358       .  S
C798        C799   1.407       .  A
C799        F806   1.358       .  S
C800        C801   1.407       .  A
C800        F805   1.358       .  S
C801        C802   1.407       .  A
C802        F803   1.357       .  S
C807        C808   1.405       .  A
C807        C812   1.398       .  A
C807        F814   1.358       .  S
C808        C809   1.405       .  A
C809        C810   1.403       .  A
C809        F816   1.358       .  S
C810        C811   1.418       .  A
C810        F815   1.356       .  S
C811        C812   1.415       .  A
C812        F813   1.358       .  S
C817        C818   1.406       .  A
C817        C822   1.407       .  A
C817        F824   1.357       .  S
C818        C819   1.407       .  A
C819        C820   1.396       .  A
C819        F826   1.358       .  S
C820        C821   1.408       .  A
C820        F825   1.358       .  S
C821        C822   1.409       .  A
C822        F823   1.352       .  S
C827        C828   1.406       .  A
C827        C832   1.400   1_545  A
C827        F834   1.357       .  S
C828        C829   1.408       .  A
C829        C830   1.400   1_545  A
C829        F836   1.358       .  S
C830        C831   1.408       .  A
C830        F835   1.358       .  S
C831        C832   1.408       .  A
C832        F833   1.357       .  S
C837        C838   1.418       .  A
C837        C842   1.401       .  A
C837        F844   1.355       .  S
C838        C839   1.415       .  A
C839        C840   1.400       .  A
C839        F846   1.358       .  S
C840        C841   1.405       .  A
C840        F845   1.358       .  S
C841        C842   1.405       .  A
C842        F843   1.358       .  S
C847        C848   1.407       .  A
C847        F854   1.358       .  S
C848        C849   1.405       .  A
C849        F856   1.357       .  S
C850        C851   1.405       .  A
C850        F855   1.357       .  S
C851        C852   1.407       .  A
C852        F853   1.358       .  S
C857        C858   1.406       .  A
C857        C862   1.393   1_655  A
C857        F864   1.358       .  S
C858        C859   1.407       .  A
C859        C860   1.405   1_655  A
C859        F866   1.353       .  S
C860        C861   1.405       .  A
C860        F865   1.357       .  S
C861        C862   1.408       .  A
C862        F863   1.358       .  S
C867        C868   1.404       .  A
C867        C872   1.394       .  A
C867        F874   1.358       .  S
C868        C869   1.403       .  A
C869        C870   1.404       .  A
C869        F876   1.358       .  S
C870        C871   1.406       .  A
C870        F875   1.354       .  S
C871        C872   1.404       .  A
C872        F873   1.358       .  S
C877        C878   1.417       .  A
C877        C882   1.393       .  A
C877        F884   1.354       .  S
C878        C879   1.417       .  A
C879        C880   1.406       .  A
C879        F886   1.358       .  S
C880        C881   1.405       .  A
C880        F885   1.358       .  S
C881        C882   1.404       .  A
C882        F883   1.359       .  S
C887        C888   1.408       .  A
C887        C892   1.397   1_545  A
C887        F894   1.358       .  S
C888        C889   1.406       .  A
C889        C890   1.401   1_545  A
C889        F896   1.357       .  S
C890        C891   1.407       .  A
C890        F895   1.357       .  S
C891        C892   1.405       .  A
C892        F893   1.358       .  S
C897        C898   1.405       .  A
C897        F904   1.358       .  S
C898        C899   1.407       .  A
C899        F906   1.358       .  S
C900        C901   1.406       .  A
C900        F905   1.358       .  S
C901        C902   1.407       .  A
C902        F903   1.357       .  S
C907        C908   1.407       .  A
C907        C912   1.395       .  A
C907        F914   1.358       .  S
C908        C909   1.405       .  A
C909        C910   1.404       .  A
C909        F916   1.354       .  S
C910        C911   1.405       .  A
C910        F915   1.357       .  S
C911        C912   1.404       .  A
C912        F913   1.358       .  S
C917        C918   1.407       .  A
C917        C922   1.405       .  A
C917        F924   1.358       .  S
C918        C919   1.405       .  A
C919        C920   1.398       .  A
C919        F926   1.358       .  S
C920        C921   1.415       .  A
C920        F925   1.358       .  S
C921        C922   1.418       .  A
C922        F923   1.355       .  S
C927        C928   1.405       .  A
C927        C932   1.398       .  A
C927        F934   1.359       .  S
C928        C929   1.402       .  A
C929        C930   1.401       .  A
C929        F936   1.358       .  S
C930        C931   1.418       .  A
C930        F935   1.357       .  S
C931        C932   1.415       .  A
C932        F933   1.356       .  S
C937        C938   1.414       .  A
C937        C942   1.399       .  A
C937        F944   1.357       .  S
C938        C939   1.416       .  A
C939        C940   1.396       .  A
C939        F946   1.356       .  S
C940        C941   1.406       .  A
C940        F945   1.358       .  S
C941        C942   1.407       .  A
C942        F943   1.358       .  S
C947        C948   1.413       .  A
C947        C952   1.391       .  A
C947        F954   1.357       .  S
C948        C949   1.417       .  A
C949        C950   1.405       .  A
C949        F956   1.357       .  S
C950        C951   1.404       .  A
C950        F955   1.358       .  S
C951        C952   1.405       .  A
C952        F953   1.359       .  S
C957        C958   1.415       .  A
C957        C962   1.397       .  A
C957        F964   1.356       .  S
C958        C959   1.416       .  A
C959        C960   1.402       .  A
C959        F966   1.357       .  S
C960        C961   1.407       .  A
C960        F965   1.358       .  S
C961        C962   1.408       .  A
C962        F963   1.358       .  S
C967        C968   1.408       .  A
C967        C972   1.404       .  A
C967        F974   1.358       .  S
C968        C969   1.406       .  A
C969        C970   1.400       .  A
C969        F976   1.358       .  S
C970        C971   1.416       .  A
C970        F975   1.357       .  S
C971        C972   1.417       .  A
C972        F973   1.356       .  S
