geometry optimzed in LAMMPS
_audit_creation_date              2020-11-30 
_audit_creation_method            'lammps2cif' 
_symmetry_space_group_name_H-M    'P1' 
_symmetry_Int_Tables_number       1 
_symmetry_cell_setting            triclinic 
loop_ 
_symmetry_equiv_pos_as_xyz 
  x,y,z 
_cell_length_a                    17.82394572 
_cell_length_b                    19.10829279847005 
_cell_length_c                    36.529415764527556 
_cell_angle_alpha                 89.06331121416262 
_cell_angle_beta                  88.24519898909249 
_cell_angle_gamma                 124.07480699749715 
loop_ 
_atom_site_label 
_atom_site_type_symbol 
_atom_site_fract_x 
_atom_site_fract_y 
_atom_site_fract_z 
_atom_site_charge 
In1        In  0.92062411  0.54171470  0.49201368     1.36900
C2          C  0.74490683  0.45198853  0.01670094     0.81000
O3          O  0.81841875  0.42474276  0.46796780    -0.57500
O4          O  0.82356882  0.30781768  0.00646075    -0.48400
C5          C  0.98625142  0.55847463  0.42399790     0.73600
O6          O  0.93588502  0.58351796  0.43229884    -0.43200
C7          C  0.96433564  0.51735705  0.05850416     0.78300
O8          O  0.81764675  0.57562566  0.48657173    -0.55100
O9          O  0.94479900  0.44513105  0.05016194    -0.45200
O10         O  0.76406133  0.40610507  0.03320318    -0.51500
C11         C  0.84006895  0.38079120  0.48438713     0.88500
O12         O  0.02355680  0.55006199  0.45100321    -0.53400
O13         O  0.96423446  0.56123806  0.03223051    -0.56700
In14       In  0.49160545  0.36788104  0.50679240     1.36900
C15         C  0.40692610  0.20565407  0.00828779     0.81000
O16         O  0.61792926  0.42190836  0.53707838    -0.57500
O17         O  0.62904534  0.47440055  0.00529321    -0.48400
C18         C  0.50823872  0.39318904  0.43510345     0.73600
O19         O  0.50056545  0.32974349  0.45020226    -0.43200
C20         C  0.40026479  0.37107464  0.06649506     0.78300
O21         O  0.44876167  0.23550095  0.49680694    -0.55100
O22         O  0.48285301  0.42564054  0.05931481    -0.45200
O23         O  0.45795277  0.25066761  0.03306598    -0.51500
C24         C  0.66675806  0.48120179  0.51385714     0.88500
O25         O  0.48703097  0.43298577  0.45557118    -0.53400
O26         O  0.35399674  0.33339944  0.03925606    -0.56700
In27       In  0.50790159  0.07455803  0.99315703     1.36900
C28         C  0.54175732  0.19130364  0.51713175     0.81000
O29         O  0.60374318  0.20891336  0.98206990    -0.57500
O30         O  0.78648897  0.24021545  0.50401448    -0.48400
C31         C  0.53279077  0.04408400  0.06163729     0.73600
O32         O  0.51638262  0.99180592  0.03669062    -0.43200
C33         C  0.59834648  0.09037788  0.42809357     0.78300
O34         O  0.39649300  0.07871587  0.02099558    -0.55100
O35         O  0.67412778  0.11052088  0.43942811    -0.45200
O36         O  0.62008081  0.22125489  0.52815641    -0.51500
C37         C  0.67370830  0.20929654  0.98583104     0.88500
O38         O  0.52575672  0.10355582  0.05210150    -0.53400
O39         O  0.54104468  0.07633635  0.45309048    -0.56700
In40       In  0.24954858  0.57156872  0.00835213     1.36900
C41         C  0.38102881  0.71615061  0.97897290     0.81000
O42         O  0.18115201  0.61324140  0.04513307    -0.57500
O43         O  0.18153100  0.50595128  0.06228371    -0.48400
C44         C  0.06886621  0.37404593  0.44734943     0.73600
O45         O  0.04597813  0.41858448  0.46239046    -0.43200
C46         C  0.38998745  0.57815488  0.03094337     0.78300
O47         O  0.20355040  0.56153601  0.47192835    -0.55100
O48         O  0.36551332  0.62339079  0.04355124    -0.45200
O49         O  0.32105069  0.71210832  0.00003428    -0.51500
C50         C  0.17123266  0.56382918  0.07106043     0.88500
O51         O  0.10609972  0.34994248  0.46828502    -0.53400
O52         O  0.27245302  0.53916830  0.52981873    -0.56700
In53       In  0.65715659  0.67277605  0.02582769     1.36900
C54         C  0.68216690  0.68293342  0.44702985     0.81000
O55         O  0.45546684  0.53813630  0.49328387    -0.57500
O56         O  0.45330633  0.62197240  0.53008715    -0.48400
C57         C  0.63490181  0.60056213  0.09030349     0.73600
O58         O  0.65140659  0.57214499  0.06212838    -0.43200
C59         C  0.77566711  0.83350351  0.01478077     0.78300
O60         O  0.71746241  0.73489023  0.47243694    -0.55100
O61         O  0.71911251  0.80526192  0.04166308    -0.45200
O62         O  0.61162712  0.61212123  0.45657390    -0.51500
C63         C  0.40868445  0.55518216  0.51291860     0.88500
O64         O  0.65557260  0.67489329  0.08639761    -0.53400
O65         O  0.79388497  0.78244104  0.00318163    -0.56700
In66       In  0.39408182  0.84310214  0.49717307     1.36900
C67         C  0.62694075  0.91652900  0.05213405     0.81000
O68         O  0.49506998  0.86324123  0.98329212    -0.57500
O69         O  0.53742217  0.78171612  0.96892008    -0.48400
C70         C  0.38620941  0.91781062  0.43814710     0.73600
O71         O  0.33478840  0.90458908  0.46600528    -0.43200
C72         C  0.52095116  0.81902019  0.48535580     0.78300
O73         O  0.66912412  0.98466375  0.03205536    -0.55100
O74         O  0.44508432  0.77726786  0.47126505    -0.45200
O75         O  0.59010393  0.84953365  0.03462493    -0.51500
C76         C  0.47284355  0.79012754  0.97524662     0.88500
O77         O  0.45116473  0.91153870  0.44423769    -0.53400
O78         O  0.54008297  0.88493869  0.50135385    -0.56700
C79         C  0.90605556  0.34693380  0.26624735     0.00900
C80         C  0.70614278  0.11754708  0.22969439     0.00900
C81         C  0.90999663  0.54556298  0.23944390     0.00900
C82         C  0.68690030  0.52388744  0.27338652     0.00900
C83         C  0.62149796  0.69609018  0.27092138     0.00900
C84         C  0.60014698  0.89288064  0.23945233     0.00900
C85         C  0.17475223  0.66694918  0.24523760     0.00900
C86         C  0.38785398  0.91196200  0.25538578     0.00900
C87         C  0.49834912  0.13488863  0.25635827     0.00900
C88         C  0.46374298  0.32637589  0.23542217     0.00900
C89         C  0.16468010  0.45850902  0.26522801     0.00900
C90         C  0.40048854  0.48464441  0.24135248     0.00900
C91         C  0.23192154  0.44012092  0.24755309    -0.13000
C92         C  0.31705185  0.47720806  0.25979941    -0.28200
H93         H  0.21406204  0.40406774  0.22289653     0.16000
H94         H  0.32962271  0.50900050  0.28550586     0.16500
C95         C  0.39536049  0.34745702  0.25008878    -0.13000
C96         C  0.42146491  0.42577798  0.26148477    -0.28200
H97         H  0.32850356  0.31074311  0.23872156     0.16000
H98         H  0.47935547  0.45743295  0.27808234     0.16500
C99         C  0.51035973  0.22125325  0.24573033    -0.13000
C100        C  0.45366996  0.24681272  0.25437866    -0.28200
H101        H  0.56746819  0.26430411  0.22697752     0.16000
H102        H  0.39651534  0.20779215  0.27367427     0.16500
C103        C  0.36886854  0.97539113  0.23877984    -0.13000
C104        C  0.40881097  0.06124965  0.24115391    -0.28200
H105        H  0.30757685  0.94512361  0.22334156     0.16000
H106        H  0.37136853  0.08247818  0.22726539     0.16500
C107        C  0.16719312  0.59390207  0.26842648    -0.13000
C108        C  0.20736796  0.55388310  0.25809058    -0.28200
H109        H  0.11799437  0.56437669  0.29121028     0.16000
H110        H  0.26377130  0.58653205  0.23785495     0.16500
C111        C  0.24492208  0.75411709  0.26116714    -0.13000
C112        C  0.31523896  0.82263538  0.24150118    -0.28200
H113        H  0.23477498  0.76057343  0.29002141     0.16000
H114        H  0.32126041  0.81639158  0.21225509     0.16500
C115        C  0.47991853  0.93054574  0.24112724    -0.13000
C116        C  0.51724849  0.89129222  0.25542172    -0.28200
H117        H  0.50992489  0.96850671  0.21594798     0.16000
H118        H  0.48128069  0.85089277  0.27966536     0.16500
C119        C  0.51997614  0.62284524  0.27250051    -0.13000
C120        C  0.48263673  0.57823087  0.24241617    -0.28200
H121        H  0.48461936  0.59661788  0.29904447     0.16000
H122        H  0.52179606  0.61051054  0.21698885     0.16500
C123        C  0.63863227  0.77562011  0.24856694    -0.13000
C124        C  0.59002233  0.81046680  0.25630056    -0.28200
H125        H  0.69081422  0.80429412  0.22661874     0.16000
H126        H  0.53741157  0.77552730  0.27781674     0.16500
C127        C  0.60457767  0.43363980  0.26684514    -0.13000
C128        C  0.56100105  0.40643826  0.23547045    -0.28200
H129        H  0.57254984  0.38849187  0.29014465     0.16000
H130        H  0.58907857  0.44837802  0.21114506     0.16500
C131        C  0.65440423  0.58397017  0.27515649    -0.13000
C132        C  0.67430749  0.65662665  0.25711166    -0.28200
H133        H  0.60467800  0.56348860  0.29788328     0.16000
H134        H  0.72288675  0.68425049  0.23387738     0.16500
C135        C  0.00214473  0.59196556  0.25771278    -0.13000
C136        C  0.08229399  0.65573114  0.24177220    -0.28200
H137        H  0.00235296  0.56323223  0.28334026     0.16000
H138        H  0.07891817  0.69235985  0.21952663     0.16500
C139        C  0.85101874  0.57336089  0.25677979    -0.13000
C140        C  0.76617450  0.54492346  0.24638255    -0.28200
H141        H  0.87188125  0.60435528  0.28273941     0.16000
H142        H  0.74750446  0.51479896  0.22020586     0.16500
C143        C  0.62590459  0.10896052  0.25068686    -0.13000
C144        C  0.57758967  0.13793561  0.23674551    -0.28200
H145        H  0.60664177  0.07655987  0.27741059     0.16000
H146        H  0.59523270  0.16476247  0.20887148     0.16500
C147        C  0.73158959  0.05901455  0.24703759    -0.13000
C148        C  0.68991729  0.97253034  0.25149506    -0.29400
H149        H  0.79803845  0.09450248  0.25871891     0.16000
H150        H  0.73043714  0.95657958  0.26660477     0.16500
C151        C  0.90413984  0.40981801  0.23984994    -0.13000
C152        C  0.86498773  0.45124855  0.24954376    -0.28200
H153        H  0.95090088  0.43600552  0.21623217     0.16000
H154        H  0.81339618  0.42370420  0.27183439     0.16500
C155        C  0.99267584  0.34695910  0.26156784    -0.13000
C156        C  0.07348916  0.41200790  0.24589475    -0.28200
H157        H  0.99586495  0.30635866  0.28176056     0.16000
H158        H  0.07262213  0.44752549  0.22277395     0.16500
C159        C  0.81984042  0.25533859  0.26339541    -0.13000
C160        C  0.78923922  0.21200084  0.23155554    -0.28200
H161        H  0.78141776  0.22283552  0.28878053     0.16000
H162        H  0.82568675  0.24549502  0.20600292     0.16500
C163        C  0.38155571  0.91527980  0.29604171    -0.15100
C164        C  0.37303514  0.91943113  0.32892634     0.08900
C165        C  0.36658471  0.92632519  0.36758715     0.10800
C166        C  0.36954294  0.92934742  0.40074271    -0.16000
C167        C  0.62208891  0.91275889  0.09220086    -0.15100
C168        C  0.61498832  0.90304334  0.12558337     0.08900
C169        C  0.60616055  0.89374948  0.16494460     0.10800
C170        C  0.60097965  0.89067387  0.19844222    -0.16000
C171        C  0.57728565  0.54840462  0.12175485    -0.15100
C172        C  0.51551297  0.51442603  0.14512746     0.08900
C173        C  0.44328138  0.48353847  0.17256868     0.10800
C174        C  0.39947186  0.47003078  0.20126657    -0.16000
C175        C  0.65065093  0.72072991  0.30907817    -0.15100
C176        C  0.67564279  0.72616937  0.34012568     0.08900
C177        C  0.69922015  0.72017195  0.37649074     0.10800
C178        C  0.70562108  0.70706516  0.40852516    -0.16000
C179        C  0.14784647  0.43517804  0.30560361    -0.15100
C180        C  0.12320203  0.41108822  0.33755559     0.08900
C181        C  0.09116680  0.38337441  0.37494910     0.10800
C182        C  0.07101467  0.36831555  0.40768214    -0.16000
C183        C  0.19658193  0.65965113  0.20643855    -0.15100
C184        C  0.19271789  0.63899193  0.17507685     0.08900
C185        C  0.17615273  0.60710995  0.13940792     0.10800
C186        C  0.16494753  0.58169002  0.10867142    -0.16000
C187        C  0.68149109  0.09575575  0.19063839    -0.15100
C188        C  0.64824424  0.07888311  0.16063714     0.08900
C189        C  0.60238485  0.05811451  0.12682088     0.10800
C190        C  0.56551049  0.04354154  0.09766380    -0.16000
C191        C  0.50364362  0.12599485  0.29673410    -0.15100
C192        C  0.52521293  0.11800939  0.32708958     0.08900
C193        C  0.55681877  0.10496524  0.36045265     0.10800
C194        C  0.57994483  0.09382448  0.38983039    -0.16000
C195        C  0.70451208  0.51663860  0.31232212    -0.15100
C196        C  0.67420594  0.49408522  0.34362490     0.08900
C197        C  0.61165047  0.45855893  0.37442049     0.10800
C198        C  0.55652978  0.42704068  0.40006862    -0.16000
C199        C  0.43940475  0.30707148  0.19670859    -0.15100
C200        C  0.40964889  0.30278847  0.16683993     0.08900
C201        C  0.37897211  0.31472464  0.13336154     0.10800
C202        C  0.37148784  0.33824974  0.10357334    -0.16000
C203        C  0.92243989  0.55757976  0.19854451    -0.15100
C204        C  0.93913086  0.55861379  0.16587199     0.08900
C205        C  0.95938784  0.55272452  0.12827733     0.10800
C206        C  0.97044569  0.54164038  0.09636748    -0.16000
C207        C  0.98347049  0.52287126  0.38842671    -0.15100
C208        C  0.96419271  0.47834568  0.36188432     0.08900
C209        C  0.93495030  0.42199558  0.33176523     0.10800
C210        C  0.91418238  0.37980437  0.30434698    -0.16000
In211      In  0.88467709  0.44800969  0.99745638     1.36900
C212        C  0.76314741  0.51723445  0.50971759     0.81000
O213        O  0.76661991  0.35176565  0.96923901    -0.57500
O214        O  0.90740072  0.41980703  0.50425683    -0.48400
C215        C  0.95627895  0.46776370  0.93065702     0.73600
O216        O  0.92801057  0.51222355  0.94111227    -0.43200
C217        C  0.99118256  0.60673696  0.55530183     0.78300
O218        O  0.80371364  0.50480165  0.99280471    -0.55100
O219        O  0.97655469  0.53808309  0.54475327    -0.45200
O220        O  0.79319421  0.47929763  0.52520118    -0.51500
C221        C  0.75975093  0.29010769  0.98573740     0.88500
O222        O  0.96769734  0.42972454  0.95625851    -0.53400
O223        O  0.98810587  0.65226087  0.53041898    -0.56700
In224      In  0.48222339  0.36658403  0.00841306     1.36900
C225        C  0.50570771  0.24213979  0.51882701     0.81000
O226        O  0.58953424  0.35706760  0.03111885    -0.57500
O227        O  0.62397417  0.49257553  0.49056046    -0.48400
C228        C  0.52757274  0.41854436  0.93902888     0.73600
O229        O  0.50938076  0.34847716  0.95104724    -0.43200
C230        C  0.38062877  0.34397418  0.56030412     0.78300
O231        O  0.38293202  0.24066739  0.98625840    -0.55100
O232        O  0.44268311  0.41764789  0.54925262    -0.45200
O233        O  0.54507486  0.30748523  0.53729717    -0.51500
C234        C  0.65296276  0.42972259  0.01929478     0.88500
O235        O  0.50726904  0.45716416  0.96098441    -0.53400
O236        O  0.35558094  0.28853563  0.53678350    -0.56700
In237      In  0.63965181  0.13633242  0.49640914     1.36900
C238        C  0.41059873  0.13581350  0.99824495     0.81000
O239        O  0.70646707  0.25983856  0.46882761    -0.57500
O240        O  0.66087233  0.13792326  0.99164703    -0.48400
C241        C  0.64500686  0.06578342  0.55825386     0.73600
O242        O  0.58088930  0.07232031  0.55100219    -0.43200
C243        C  0.45884799  0.01413588  0.92832967     0.78300
O244        O  0.50737471  0.12485134  0.49924441    -0.55100
O245        O  0.54015775  0.06400093  0.93600996    -0.45200
O246        O  0.46027906  0.14824534  0.97055268    -0.51500
C247        C  0.77950969  0.29086216  0.48440018     0.88500
O248        O  0.69649691  0.07699557  0.53089556    -0.53400
O249        O  0.40340672  0.97600934  0.95570436    -0.56700
In250      In  0.13692610  0.44969677  0.50936789     1.36900
C251        C  0.18820115  0.60417965  0.49279074     0.81000
O252        O  0.03524803  0.42770052  0.55386141    -0.57500
O253        O  0.13032038  0.39823621  0.56629401    -0.48400
C254        C  0.16418504  0.49172437  0.95055801     0.73600
O255        O  0.17135227  0.55853678  0.95971597    -0.43200
C256        C  0.31053057  0.50878525  0.51384050     0.78300
O257        O  0.36345557  0.64690369  0.96783627    -0.55100
O258        O  0.25845698  0.44193519  0.49721502    -0.45200
O259        O  0.13502143  0.56416955  0.51993629    -0.51500
C260        C  0.07910571  0.41980524  0.57814391     0.88500
O261        O  0.18264229  0.45636384  0.97477945    -0.53400
O262        O  0.33350413  0.51774310  0.01185924    -0.56700
In263      In  0.58740781  0.65861103  0.50774904     1.36900
C264        C  0.65568370  0.66212721  0.95284077     0.81000
O265        O  0.51343828  0.56431241  0.02101747    -0.57500
O266        O  0.54328994  0.68343548  0.03836502    -0.48400
C267        C  0.59420969  0.60920666  0.57437810     0.73600
O268        O  0.59436369  0.57101006  0.54664254    -0.43200
C269        C  0.56821535  0.77848511  0.48876382     0.78300
O270        O  0.69918554  0.64069339  0.97196697    -0.55100
O271        O  0.61892701  0.78971715  0.51478573    -0.45200
O272        O  0.60993225  0.68221269  0.97124773    -0.51500
C273        C  0.48396488  0.60742880  0.03161692     0.88500
O274        O  0.61684866  0.68377970  0.56759680    -0.53400
O275        O  0.53999163  0.71331812  0.47086992    -0.56700
In276      In  0.64296559  0.91335038  0.97901377     1.36900
C277        C  0.42906815  0.85140022  0.56844460     0.81000
O278        O  0.24765111  0.74327476  0.51347670    -0.57500
O279        O  0.31709608  0.72629039  0.46937617    -0.48400
C280        C  0.63509849  0.96778791  0.91373784     0.73600
O281        O  0.64155733  0.00852516  0.94204137    -0.43200
C282        C  0.77150096  0.89108090  0.98954047     0.78300
O283        O  0.44100455  0.91485309  0.55038521    -0.55100
O284        O  0.71826822  0.85660360  0.96390960    -0.45200
O285        O  0.38852023  0.78376924  0.55154034    -0.51500
C286        C  0.24814908  0.69455648  0.49051572     0.88500
O287        O  0.65450132  0.91450311  0.91829597    -0.53400
O288        O  0.77975446  0.95731315  0.00052481    -0.56700
C289        C  0.91922079  0.34214204  0.75588684     0.00900
C290        C  0.70381172  0.10514211  0.73952773     0.00900
C291        C  0.92912088  0.55031323  0.73823275     0.00900
C292        C  0.69556512  0.51254478  0.77424377     0.00900
C293        C  0.62324351  0.67787435  0.76992967     0.00900
C294        C  0.59984497  0.86420943  0.73050011     0.00900
C295        C  0.18578491  0.64474534  0.73090263     0.00900
C296        C  0.39386408  0.87872302  0.76299180     0.00900
C297        C  0.48926701  0.11649648  0.75265685     0.00900
C298        C  0.47287331  0.31929911  0.73054482     0.00900
C299        C  0.16418701  0.43289827  0.77052311     0.00900
C300        C  0.40315307  0.47210834  0.73713754     0.00900
C301        C  0.23427696  0.41480660  0.75586939    -0.13000
C302        C  0.32456464  0.47661316  0.75336081    -0.28200
H303        H  0.21082967  0.35259488  0.74618814     0.16000
H304        H  0.34319042  0.53755932  0.76318463     0.16500
C305        C  0.39905101  0.33482387  0.74375423    -0.13000
C306        C  0.41822481  0.40886406  0.75756270    -0.28200
H307        H  0.33489805  0.29861878  0.73028119     0.16000
H308        H  0.47330333  0.43771074  0.77593781     0.16500
C309        C  0.47248199  0.18049588  0.73327381    -0.13000
C310        C  0.46349701  0.24020430  0.74995709    -0.28200
H311        H  0.48063837  0.18457797  0.70358862     0.16000
H312        H  0.45966567  0.23861542  0.77967101     0.16500
C313        C  0.38022398  0.95215483  0.75742451    -0.13000
C314        C  0.43501792  0.02583600  0.73659570    -0.28200
H315        H  0.33893896  0.95396284  0.77942483     0.16000
H316        H  0.46301536  0.02167206  0.71056978     0.16500
C317        C  0.18170505  0.57810157  0.75787916    -0.13000
C318        C  0.17470411  0.50588495  0.74700649    -0.28200
H319        H  0.18280654  0.58957232  0.78689219     0.16000
H320        H  0.17425822  0.49381886  0.71827783     0.16500
C321        C  0.27810481  0.73331835  0.73314403    -0.13000
C322        C  0.30161305  0.78971060  0.76067861    -0.28200
H323        H  0.32702398  0.75245852  0.71027318     0.16000
H324        H  0.25057293  0.77240677  0.78246162     0.16500
C325        C  0.47101434  0.88680585  0.73883393    -0.13000
C326        C  0.51307621  0.84836573  0.74910927    -0.28200
H327        H  0.49969207  0.93054368  0.71527154     0.16000
H328        H  0.48378250  0.80403190  0.77267047     0.16500
C329        C  0.52331713  0.60435627  0.76961712    -0.13000
C330        C  0.49109169  0.56042292  0.73913994    -0.28200
H331        H  0.48178171  0.58021503  0.79502554     0.16000
H332        H  0.53668113  0.58834095  0.71483992     0.16500
C333        C  0.63531456  0.74914952  0.74324247    -0.13000
C334        C  0.62753456  0.81320288  0.75381731    -0.28200
H335        H  0.63015456  0.73646168  0.71425886     0.16000
H336        H  0.63287339  0.82599577  0.78282101     0.16500
C337        C  0.61490765  0.42235304  0.76547189    -0.13000
C338        C  0.56943975  0.40085976  0.73398798    -0.28200
H339        H  0.58665760  0.37401539  0.78745784     0.16000
H340        H  0.59539222  0.44949834  0.71219466     0.16500
C341        C  0.65882801  0.56862046  0.77569438    -0.13000
C342        C  0.68024904  0.64183952  0.75832117    -0.28200
H343        H  0.60412411  0.54377036  0.79663769     0.16000
H344        H  0.73275501  0.67203858  0.73652137     0.16500
C345        C  0.02469307  0.59569922  0.75490906    -0.13000
C346        C  0.10400313  0.65236848  0.73565454    -0.28200
H347        H  0.02885567  0.56290588  0.77853676     0.16000
H348        H  0.10205112  0.69222811  0.71465250     0.16500
C349        C  0.86459443  0.56793964  0.75923819    -0.13000
C350        C  0.77933684  0.53993181  0.74834773    -0.28200
H351        H  0.88166577  0.58904053  0.78700404     0.16000
H352        H  0.76438454  0.52048149  0.72027357     0.16500
C353        C  0.62303977  0.10433198  0.75667740    -0.13000
C354        C  0.58977110  0.14902272  0.74462724    -0.28200
H355        H  0.57953763  0.05389303  0.77681430     0.16000
H356        H  0.62990859  0.20063752  0.72448282     0.16500
C357        C  0.68571706  0.01792214  0.75190127    -0.13000
C358        C  0.67725455  0.95944037  0.72827339    -0.29400
H359        H  0.65821596  0.99489426  0.77974893     0.16000
H360        H  0.71296928  0.98295304  0.70167614     0.16500
C361        C  0.93516463  0.42141558  0.73601143    -0.13000
C362        C  0.88719190  0.45504053  0.74384557    -0.28200
H363        H  0.99674618  0.46050289  0.71881821     0.16000
H364        H  0.82492072  0.41687130  0.76082031     0.16500
C365        C  0.00460854  0.34264633  0.74539693    -0.13000
C366        C  0.06542500  0.35320345  0.77013727    -0.28200
H367        H  0.02976325  0.36081290  0.71701213     0.16000
H368        H  0.03545086  0.32190595  0.79682517     0.16500
C369        C  0.82985202  0.26299133  0.74324804    -0.13000
C370        C  0.79523409  0.18065600  0.75295197    -0.28200
H371        H  0.79117049  0.27437304  0.72457706     0.16000
H372        H  0.83395961  0.16733144  0.77068856     0.16500
C373        C  0.42801732  0.89123610  0.80104132    -0.15100
C374        C  0.47626437  0.91423290  0.82726732     0.08900
C375        C  0.54106185  0.94651808  0.85533874     0.10800
C376        C  0.59202747  0.96776168  0.88053695    -0.16000
C377        C  0.46685776  0.85467446  0.60387270    -0.15100
C378        C  0.50165871  0.84799391  0.63089495     0.08900
C379        C  0.54252316  0.83873082  0.66241416     0.10800
C380        C  0.57376227  0.83910580  0.69185085    -0.16000
C381        C  0.55089684  0.56456035  0.60923481    -0.15100
C382        C  0.49818948  0.52431295  0.63517265     0.08900
C383        C  0.43527329  0.48172087  0.66593227     0.10800
C384        C  0.39950600  0.46084662  0.69673069    -0.16000
C385        C  0.64343387  0.70122811  0.80918555    -0.15100
C386        C  0.65281233  0.69802496  0.84204451     0.08900
C387        C  0.65854550  0.68253796  0.88017368     0.10800
C388        C  0.65990726  0.66905412  0.91286796    -0.16000
C389        C  0.17906849  0.45439628  0.80960189    -0.15100
C390        C  0.17361870  0.45945007  0.84240401     0.08900
C391        C  0.15867873  0.46021290  0.88065066     0.10800
C392        C  0.15119125  0.46652240  0.91319868    -0.16000
C393        C  0.17585934  0.61292080  0.69271852    -0.15100
C394        C  0.15088988  0.56826485  0.66614812     0.08900
C395        C  0.11548068  0.50568972  0.63871361     0.10800
C396        C  0.09007880  0.45656598  0.61382038    -0.16000
C397        C  0.70198665  0.10850147  0.69854931    -0.15100
C398        C  0.69361149  0.09626333  0.66588809     0.08900
C399        C  0.67940691  0.07455578  0.62832910     0.10800
C400        C  0.66478085  0.06126916  0.59604544    -0.16000
C401        C  0.47059003  0.10834929  0.79324732    -0.15100
C402        C  0.45255824  0.08318518  0.82514816     0.08900
C403        C  0.43520814  0.04412019  0.86083332     0.10800
C404        C  0.43351459  0.01695786  0.89137826    -0.16000
C405        C  0.71137064  0.50639087  0.81351948    -0.15100
C406        C  0.68583867  0.49464704  0.84554673     0.08900
C407        C  0.63107504  0.47591200  0.87813419     0.10800
C408        C  0.57956386  0.45438573  0.90479120    -0.16000
C409        C  0.45513100  0.30610509  0.69089415    -0.15100
C410        C  0.42460799  0.30304067  0.66125632     0.08900
C411        C  0.38627184  0.30867746  0.62862878     0.10800
C412        C  0.36706599  0.32154285  0.59886742    -0.16000
C413        C  0.93853837  0.57304027  0.69806903    -0.15100
C414        C  0.95657202  0.59337879  0.66556006     0.08900
C415        C  0.98130316  0.61450822  0.62732568     0.10800
C416        C  0.99581881  0.62248450  0.59421184    -0.16000
C417        C  0.95928746  0.44921764  0.89235247    -0.15100
C418        C  0.94635056  0.42037380  0.86192065     0.08900
C419        C  0.92635202  0.38225797  0.82696911     0.10800
C420        C  0.91490948  0.35537111  0.79615620    -0.16000
loop_ 
_geom_bond_atom_site_label_1 
_geom_bond_atom_site_label_2 
_geom_bond_distance 
_geom_bond_site_symmetry_2 
_ccdc_geom_bond_type 
In1           O3   2.165       .  S
In1          O12   2.265   1_655  S
In1           O6   2.266       .  S
In1           O8   2.276       .  S
In1         O214   2.242       .  S
In1         O219   2.214       .  S
In1         O220   2.191       .  S
In1         O223   2.287       .  S
C2           O10   1.257       .  A
C2          O218   1.268   1_554  A
C2          C234   1.443       .  S
O3           C11   1.255       .  A
O4         In211   2.269   1_554  S
O4          C221   1.269   1_554  A
C5           O12   1.263   1_655  A
C5            O6   1.263       .  A
C5          C207   1.466       .  S
C7            O9   1.265       .  A
C7           O13   1.265       .  A
C7          C206   1.454       .  S
O8          C212   1.268       .  A
O9         In211   2.247   1_554  S
O10        In211   2.198   1_554  S
C11         O214   1.262       .  A
C11         C247   1.428       .  S
O13        In211   2.251   1_554  S
In14         O16   2.224       .  S
In14         O25   2.259       .  S
In14         O19   2.234       .  S
In14         O21   2.236       .  S
In14        O227   2.272       .  S
In14        O232   2.228       .  S
In14        O233   2.177       .  S
In14        O236   2.245       .  S
C15          O23   1.259       .  A
C15         O231   1.266   1_554  A
C15         C238   1.426   1_554  S
O16          C24   1.257       .  A
O17        In224   2.245       .  S
O17         C234   1.257       .  A
C18          O25   1.266       .  A
C18          O19   1.257       .  A
C18         C198   1.442       .  S
C20          O22   1.253       .  A
C20          O26   1.264       .  A
C20         C202   1.435       .  S
O21         C225   1.266       .  A
O22        In224   2.188       .  S
O23        In224   2.177       .  S
C24         O227   1.254       .  A
C24         C212   1.450       .  S
O26        In224   2.256       .  S
In27         O29   2.164       .  S
In27         O38   2.220   1_556  S
In27         O32   2.292   1_546  S
In27         O34   2.245   1_556  S
In27        O240   2.279       .  S
In27        O245   2.191       .  S
In27        O246   2.175       .  S
In27        O249   2.280   1_545  S
C28          O36   1.259       .  A
C28         O244   1.263       .  A
C28         C225   1.435       .  S
O29          C37   1.255       .  A
O30        In237   2.260       .  S
O30         C247   1.258       .  A
C31          O38   1.256       .  A
C31          O32   1.278   1_545  A
C31         C190   1.458       .  S
C33          O35   1.265       .  A
C33          O39   1.256       .  A
C33         C194   1.454       .  S
O34         C238   1.263   1_554  A
O35        In237   2.291       .  S
O36        In237   2.184       .  S
C37         O240   1.263       .  A
C37         C221   1.443       .  S
O39        In237   2.209       .  S
In40         O42   2.224       .  S
In40         O43   2.234       .  S
In40         O48   2.195       .  S
In40         O49   2.246       .  S
In40        O261   2.238   1_554  S
In40        O255   2.222   1_554  S
In40        O257   2.204   1_554  S
In40        O262   2.246       .  S
C41          O49   1.263   1_556  A
C41         O257   1.255       .  A
C41          C76   1.443       .  S
O42          C50   1.262       .  A
O43          C50   1.263       .  A
C44          O51   1.265       .  A
C44          O45   1.258       .  A
C44         C182   1.456       .  S
O45        In250   2.247       .  S
C46          O48   1.254       .  A
C46         O262   1.265       .  A
C46         C273   1.440       .  S
O47        In250   2.193       .  S
O47         C251   1.256       .  A
C50         C186   1.437       .  S
O51        In250   2.271       .  S
O52        In250   2.200       .  S
O52         C256   1.252       .  A
In53         O64   2.213       .  S
In53         O58   2.270       .  S
In53         O61   2.218       .  S
In53         O65   2.261       .  S
In53        O265   2.231       .  S
In53        O266   2.186       .  S
In53        O270   2.296   1_554  S
In53        O272   2.231   1_554  S
C54          O60   1.268       .  A
C54          O62   1.259       .  A
C54         C178   1.447       .  S
O55        In263   2.271       .  S
O55          C63   1.261       .  A
O56        In263   2.204       .  S
O56          C63   1.255       .  A
C57          O64   1.256       .  A
C57          O58   1.273       .  A
C57         C171   1.453       .  S
C59          O61   1.259       .  A
C59          O65   1.264       .  A
C59         C282   1.459   1_554  S
O60        In263   2.265       .  S
O62        In263   2.215       .  S
C63         C256   1.451       .  S
In66         O77   2.189       .  S
In66         O71   2.284       .  S
In66         O74   2.138       .  S
In66         O78   2.265       .  S
In66        O278   2.257       .  S
In66        O279   2.150       .  S
In66        O283   2.293       .  S
In66        O285   2.242       .  S
C67          O73   1.279       .  A
C67          O75   1.261       .  A
C67         C167   1.462       .  S
O68        In276   2.243       .  S
O68          C76   1.263       .  A
O69        In276   2.185       .  S
O69          C76   1.263       .  A
C70          O77   1.255       .  A
C70          O71   1.271       .  A
C70         C166   1.446       .  S
C72          O74   1.256       .  A
C72          O78   1.265       .  A
C72         C269   1.435       .  S
O73        In276   2.293   1_554  S
O75        In276   2.240   1_554  S
C79         C151   1.544       .  S
C79         C155   1.548       .  S
C79         C159   1.561       .  S
C79         C210   1.514       .  S
C80         C143   1.525       .  S
C80         C147   1.556       .  S
C80         C160   1.572       .  S
C80         C187   1.502       .  S
C81         C135   1.544   1_655  S
C81         C139   1.544       .  S
C81         C152   1.539       .  S
C81         C203   1.498       .  S
C82         C127   1.544       .  S
C82         C131   1.550       .  S
C82         C140   1.548       .  S
C82         C195   1.487       .  S
C83         C119   1.546       .  S
C83         C123   1.579       .  S
C83         C132   1.577       .  S
C83         C175   1.492       .  S
C84         C116   1.556       .  S
C84         C124   1.592       .  S
C84         C148   1.551       .  S
C84         C170   1.499       .  S
C85         C107   1.558       .  S
C85         C111   1.555       .  S
C85         C136   1.548       .  S
C85         C183   1.488       .  S
C86         C103   1.549       .  S
C86         C112   1.562       .  S
C86         C115   1.542       .  S
C86         C163   1.491       .  S
C87          C99   1.581       .  S
C87         C104   1.549       .  S
C87         C144   1.535       .  S
C87         C191   1.494       .  S
C88          C95   1.566       .  S
C88         C100   1.573       .  S
C88         C128   1.541       .  S
C88         C199   1.483       .  S
C89          C91   1.552       .  S
C89         C108   1.545       .  S
C89         C156   1.550       .  S
C89         C179   1.505       .  S
C90          C92   1.544       .  S
C90          C96   1.551       .  S
C90         C120   1.554       .  S
C90         C174   1.494       .  S
C91          C92   1.361       .  D
C91          H93   1.086       .  S
C92          H94   1.086       .  S
C95          C96   1.372       .  D
C95          H97   1.090       .  S
C96          H98   1.072       .  S
C99         C100   1.378       .  D
C99         H101   1.088       .  S
C100        H102   1.085       .  S
C103        C104   1.380   1_565  D
C103        H105   1.089       .  S
C104        H106   1.088       .  S
C107        C108   1.359       .  D
C107        H109   1.080       .  S
C108        H110   1.088       .  S
C111        C112   1.370       .  D
C111        H113   1.085       .  S
C112        H114   1.086       .  S
C115        C116   1.359       .  D
C115        H117   1.082       .  S
C116        H118   1.086       .  S
C119        C120   1.348       .  D
C119        H121   1.087       .  S
C120        H122   1.091       .  S
C123        C124   1.383       .  D
C123        H125   1.085       .  S
C124        H126   1.086       .  S
C127        C128   1.345       .  D
C127        H129   1.090       .  S
C128        H130   1.087       .  S
C131        C132   1.375       .  D
C131        H133   1.088       .  S
C132        H134   1.085       .  S
C135        C136   1.356       .  D
C135        H137   1.079       .  S
C136        H138   1.089       .  S
C139        C140   1.359       .  D
C139        H141   1.087       .  S
C140        H142   1.086       .  S
C143        C144   1.364       .  D
C143        H145   1.084       .  S
C144        H146   1.087       .  S
C147        C148   1.385   1_545  D
C147        H149   1.089       .  S
C148        H150   1.088       .  S
C151        C152   1.361       .  D
C151        H153   1.079       .  S
C152        H154   1.088       .  S
C155        C156   1.367   1_655  D
C155        H157   1.087       .  S
C156        H158   1.081       .  S
C159        C160   1.378       .  D
C159        H161   1.086       .  S
C160        H162   1.086       .  S
C163        C164   1.216       .  T
C164        C165   1.428       .  S
C165        C166   1.215       .  T
C167        C168   1.222       .  T
C168        C169   1.439       .  S
C169        C170   1.222       .  T
C171        C172   1.219       .  T
C172        C173   1.436       .  S
C173        C174   1.221       .  T
C175        C176   1.216       .  T
C176        C177   1.427       .  S
C177        C178   1.215       .  T
C179        C180   1.221       .  T
C180        C181   1.436       .  S
C181        C182   1.220       .  T
C183        C184   1.209       .  T
C184        C185   1.416       .  S
C185        C186   1.208       .  T
C187        C188   1.222       .  T
C188        C189   1.437       .  S
C189        C190   1.221       .  T
C191        C192   1.219       .  T
C192        C193   1.433       .  S
C193        C194   1.219       .  T
C195        C196   1.213       .  T
C196        C197   1.421       .  S
C197        C198   1.212       .  T
C199        C200   1.212       .  T
C200        C201   1.421       .  S
C201        C202   1.210       .  T
C203        C204   1.218       .  T
C204        C205   1.432       .  S
C205        C206   1.218       .  T
C207        C208   1.225       .  T
C208        C209   1.444       .  S
C209        C210   1.227       .  T
In211       O213   2.175       .  S
In211       O222   2.244       .  S
In211       O216   2.258       .  S
In211       O218   2.248       .  S
C212        O220   1.254       .  A
O213        C221   1.256       .  A
C215        O222   1.265       .  A
C215        O216   1.265       .  A
C215        C417   1.456       .  S
C217        O219   1.256       .  A
C217        O223   1.271       .  A
C217        C416   1.453       .  S
In224       O226   2.205       .  S
In224       O235   2.277   1_554  S
In224       O229   2.212   1_554  S
In224       O231   2.226   1_554  S
C225        O233   1.258       .  A
O226        C234   1.259       .  A
C228        O235   1.273       .  A
C228        O229   1.255       .  A
C228        C408   1.443       .  S
C230        O232   1.256       .  A
C230        O236   1.258       .  A
C230        C412   1.439       .  S
In237       O239   2.168       .  S
In237       O248   2.284       .  S
In237       O242   2.220       .  S
In237       O244   2.241       .  S
C238        O246   1.251       .  A
O239        C247   1.250       .  A
C241        O248   1.266       .  A
C241        O242   1.253       .  A
C241        C400   1.448       .  S
C243        O245   1.254       .  A
C243        O249   1.271   1_545  A
C243        C404   1.446       .  S
In250       O252   2.246       .  S
In250       O253   2.257       .  S
In250       O258   2.284       .  S
In250       O259   2.246       .  S
C251        O259   1.254       .  A
C251        C286   1.433       .  S
O252        C260   1.261       .  A
O253        C260   1.262       .  A
C254        O261   1.263       .  A
C254        O255   1.262       .  A
C254        C392   1.437       .  S
C256        O258   1.262       .  A
C260        C396   1.457       .  S
In263       O274   2.260       .  S
In263       O268   2.236       .  S
In263       O271   2.261       .  S
In263       O275   2.153       .  S
C264        O270   1.279       .  A
C264        O272   1.261       .  A
C264        C388   1.460       .  S
O265        C273   1.260       .  A
O266        C273   1.263       .  A
C267        O274   1.262       .  A
C267        O268   1.259       .  A
C267        C381   1.453       .  S
C269        O271   1.268       .  A
C269        O275   1.255       .  A
In276       O287   2.220       .  S
In276       O281   2.259   1_565  S
In276       O284   2.211       .  S
In276       O288   2.261   1_556  S
C277        O283   1.275       .  A
C277        O285   1.257       .  A
C277        C377   1.463       .  S
O278        C286   1.267       .  A
O279        C286   1.251       .  A
C280        O287   1.256       .  A
C280        O281   1.273   1_565  A
C280        C376   1.455       .  S
C282        O284   1.259       .  A
C282        O288   1.263   1_556  A
C289        C361   1.540       .  S
C289        C365   1.553   1_655  S
C289        C369   1.551       .  S
C289        C420   1.504       .  S
C290        C353   1.544       .  S
C290        C357   1.565       .  S
C290        C370   1.554       .  S
C290        C397   1.499       .  S
C291        C345   1.565   1_655  S
C291        C349   1.554       .  S
C291        C362   1.539       .  S
C291        C413   1.501       .  S
C292        C337   1.552       .  S
C292        C341   1.538       .  S
C292        C350   1.556       .  S
C292        C405   1.486       .  S
C293        C329   1.531       .  S
C293        C333   1.571       .  S
C293        C342   1.566       .  S
C293        C385   1.503       .  S
C294        C326   1.533       .  S
C294        C334   1.567       .  S
C294        C358   1.548       .  S
C294        C380   1.501       .  S
C295        C317   1.565       .  S
C295        C321   1.572       .  S
C295        C346   1.549       .  S
C295        C393   1.506       .  S
C296        C313   1.564       .  S
C296        C322   1.576       .  S
C296        C325   1.542       .  S
C296        C373   1.503       .  S
C297        C309   1.575       .  S
C297        C314   1.572       .  S
C297        C354   1.548       .  S
C297        C401   1.496       .  S
C298        C305   1.567       .  S
C298        C310   1.578       .  S
C298        C338   1.556       .  S
C298        C409   1.487       .  S
C299        C301   1.554       .  S
C299        C318   1.541       .  S
C299        C366   1.554       .  S
C299        C389   1.482       .  S
C300        C302   1.551       .  S
C300        C306   1.561       .  S
C300        C330   1.535       .  S
C300        C384   1.493       .  S
C301        C302   1.360       .  D
C301        H303   1.086       .  S
C302        H304   1.088       .  S
C305        C306   1.366       .  D
C305        H307   1.090       .  S
C306        H308   1.079       .  S
C309        C310   1.386       .  D
C309        H311   1.085       .  S
C310        H312   1.084       .  S
C313        C314   1.376   1_565  D
C313        H315   1.087       .  S
C314        H316   1.085       .  S
C317        C318   1.380       .  D
C317        H319   1.084       .  S
C318        H320   1.077       .  S
C321        C322   1.380       .  D
C321        H323   1.086       .  S
C322        H324   1.086       .  S
C325        C326   1.367       .  D
C325        H327   1.082       .  S
C326        H328   1.088       .  S
C329        C330   1.343       .  D
C329        H331   1.088       .  S
C330        H332   1.090       .  S
C333        C334   1.367       .  D
C333        H335   1.085       .  S
C334        H336   1.086       .  S
C337        C338   1.359       .  D
C337        H339   1.087       .  S
C338        H340   1.088       .  S
C341        C342   1.365       .  D
C341        H343   1.089       .  S
C342        H344   1.085       .  S
C345        C346   1.365       .  D
C345        H347   1.087       .  S
C346        H348   1.087       .  S
C349        C350   1.374       .  D
C349        H351   1.086       .  S
C350        H352   1.086       .  S
C353        C354   1.359       .  D
C353        H355   1.084       .  S
C354        H356   1.086       .  S
C357        C358   1.366   1_545  D
C357        H359   1.087   1_545  S
C358        H360   1.086       .  S
C361        C362   1.354       .  D
C361        H363   1.087       .  S
C362        H364   1.088       .  S
C365        C366   1.361       .  D
C365        H367   1.087       .  S
C366        H368   1.088       .  S
C369        C370   1.365       .  D
C369        H371   1.086       .  S
C370        H372   1.086       .  S
C373        C374   1.221       .  T
C374        C375   1.436       .  S
C375        C376   1.220       .  T
C377        C378   1.224       .  T
C378        C379   1.441       .  S
C379        C380   1.224       .  T
C381        C382   1.218       .  T
C382        C383   1.433       .  S
C383        C384   1.220       .  T
C385        C386   1.222       .  T
C386        C387   1.438       .  S
C387        C388   1.221       .  T
C389        C390   1.209       .  T
C390        C391   1.416       .  S
C391        C392   1.208       .  T
C393        C394   1.223       .  T
C394        C395   1.437       .  S
C395        C396   1.221       .  T
C397        C398   1.217       .  T
C398        C399   1.429       .  S
C399        C400   1.216       .  T
C401        C402   1.216       .  T
C402        C403   1.427       .  S
C403        C404   1.215       .  T
C405        C406   1.213       .  T
C406        C407   1.422       .  S
C407        C408   1.212       .  T
C409        C410   1.214       .  T
C410        C411   1.424       .  S
C411        C412   1.212       .  T
C413        C414   1.219       .  T
C414        C415   1.433       .  S
C415        C416   1.218       .  T
C417        C418   1.219       .  T
C418        C419   1.434       .  S
C419        C420   1.220       .  T
