geometry optimzed in LAMMPS
_audit_creation_date              2020-11-30 
_audit_creation_method            'lammps2cif' 
_symmetry_space_group_name_H-M    'P1' 
_symmetry_Int_Tables_number       1 
_symmetry_cell_setting            triclinic 
loop_ 
_symmetry_equiv_pos_as_xyz 
  x,y,z 
_cell_length_a                    36.09085243 
_cell_length_b                    40.05072329286529 
_cell_length_c                    35.61143738949347 
_cell_angle_alpha                 90.01718600831747 
_cell_angle_beta                  90.01944222703223 
_cell_angle_gamma                 89.95633074242232 
loop_ 
_atom_site_label 
_atom_site_type_symbol 
_atom_site_fract_x 
_atom_site_fract_y 
_atom_site_fract_z 
_atom_site_charge 
N1          N  0.45564788  0.46537570  0.42975390    -0.04700
N2          N  0.44901682  0.44209429  0.40434389    -0.56800
N3          N  0.42957964  0.54186642  0.45615312    -0.04400
N4          N  0.40483376  0.56545966  0.44951304    -0.58900
N5          N  0.45553121  0.54208204  0.43016940    -0.04000
N6          N  0.44895828  0.56583096  0.40529352    -0.56800
N7          N  0.42977125  0.46518999  0.45579410    -0.03700
N8          N  0.40497136  0.44178529  0.44863231    -0.59300
C9          C  0.41758317  0.42749564  0.41671989     0.97500
C10         C  0.41750867  0.58028508  0.41796745     0.97300
N11         N  0.45490461  0.54190033  0.57103910    -0.04900
N12         N  0.44813573  0.56567417  0.59584306    -0.57400
N13         N  0.42988453  0.46484899  0.54459361    -0.03000
N14         N  0.40572777  0.44070178  0.55074319    -0.58600
N15         N  0.45550265  0.46502113  0.57092873    -0.04900
N16         N  0.44931027  0.44098303  0.59553213    -0.57700
N17         N  0.42920568  0.54169750  0.54479506    -0.02600
N18         N  0.40443419  0.56532416  0.55117740    -0.58700
Mn19       Mn  0.42857040  0.50337340  0.50038181     1.18400
C20         C  0.41682293  0.58014671  0.58285327     0.99600
C21         C  0.41843321  0.42595077  0.58234303     1.00200
N22         N  0.54333810  0.54202909  0.43041529    -0.04900
N23         N  0.55001852  0.56567311  0.40544505    -0.61200
N24         N  0.56880375  0.46504916  0.45685876    -0.03700
N25         N  0.59287007  0.44075340  0.45079235    -0.61900
N26         N  0.54310183  0.46514692  0.43060163    -0.04400
N27         N  0.54912906  0.44092744  0.40615684    -0.61500
N28         N  0.56908468  0.54196504  0.45661984    -0.03300
N29         N  0.59380038  0.56557599  0.45001998    -0.62200
Mn30       Mn  0.49945424  0.50370276  0.42919139     1.10700
C31         C  0.58134025  0.58023167  0.41825022     1.00800
C32         C  0.58002974  0.42587607  0.41930068     1.00900
N33         N  0.54287850  0.46538941  0.57173246    -0.04400
N34         N  0.54892248  0.44134671  0.59639964    -0.59800
N35         N  0.56851309  0.54224927  0.54542633    -0.03800
N36         N  0.59275636  0.56630141  0.55181112    -0.56600
N37         N  0.54257045  0.54230993  0.57142335    -0.05100
N38         N  0.54864125  0.56639822  0.59603535    -0.59400
N39         N  0.56875105  0.46529286  0.54568603    -0.04100
N40         N  0.59295684  0.44117600  0.55210125    -0.56600
Mn41       Mn  0.49895138  0.50369851  0.57239083     1.20200
Mn42       Mn  0.56988447  0.50363865  0.50115333     1.10100
Cl43       Cl  0.49921498  0.50363258  0.50077897    -0.84500
C44         C  0.58003580  0.42640181  0.58360264     0.97800
C45         C  0.57980549  0.58121325  0.58322653     0.97600
N46         N  0.95273383  0.46654063  0.93116678    -0.04700
N47         N  0.94636031  0.44245853  0.90661401    -0.56800
N48         N  0.92669041  0.54357452  0.95694692    -0.04400
N49         N  0.90238242  0.56762945  0.95071950    -0.58900
N50         N  0.95241436  0.54354146  0.93074093    -0.04000
N51         N  0.94616599  0.56761207  0.90615760    -0.56800
N52         N  0.92701492  0.46666460  0.95736849    -0.03700
N53         N  0.90264590  0.44267836  0.95123337    -0.59300
C54         C  0.91526024  0.42771792  0.91972802     0.97500
C55         C  0.91509072  0.58247715  0.91918999     0.97300
N56         N  0.95259375  0.54394641  0.07182360    -0.04900
N57         N  0.94601395  0.56774723  0.09662227    -0.57400
N58         N  0.92725173  0.46700572  0.04586065    -0.03000
N59         N  0.90316493  0.44281156  0.05202170    -0.58600
N60         N  0.95301533  0.46712907  0.07204134    -0.01300
N61         N  0.94697476  0.44300192  0.09659146    -0.57700
N62         N  0.92681603  0.54379011  0.04565522    -0.02600
N63         N  0.90214844  0.56748154  0.05210195    -0.58700
Mn64       Mn  0.92586732  0.50528255  0.00145417     1.18400
C65         C  0.91472517  0.58228342  0.08371470     0.99600
C66         C  0.91601489  0.42800231  0.08351214     1.00200
N67         N  0.03988733  0.54375708  0.93050715    -0.04900
N68         N  0.04632696  0.56720291  0.90524748    -0.61200
N69         N  0.06615148  0.46739759  0.95754934    -0.03700
N70         N  0.09080746  0.44361063  0.95161306    -0.61900
N71         N  0.04042295  0.46694417  0.93134387    -0.04400
N72         N  0.04708823  0.44281116  0.90695436    -0.61500
N73         N  0.06565002  0.54411878  0.95669021    -0.03300
N74         N  0.09017436  0.56780027  0.94976477    -0.62200
Mn75       Mn  0.99634607  0.50516457  0.92980635     1.10700
C76         C  0.07752815  0.58207871  0.91786246     1.00800
C77         C  0.07835203  0.42841917  0.92021987     1.00900
N78         N  0.04050464  0.46760500  0.07199813    -0.04400
N79         N  0.04690852  0.44359075  0.09658224    -0.59800
N80         N  0.06577456  0.54445821  0.04553035    -0.03800
N81         N  0.09047562  0.56805885  0.05205453    -0.56600
N82         N  0.04018788  0.54436982  0.07187393    -0.05100
N83         N  0.04696962  0.56795415  0.09690236    -0.59400
N84         N  0.06626845  0.46777464  0.04584826    -0.04100
N85         N  0.09074737  0.44387840  0.05206077    -0.56600
Mn86       Mn  0.99655519  0.50578009  0.07306818     1.20200
Mn87       Mn  0.06698237  0.50601171  0.00139927     1.10100
Cl88       Cl  0.99643603  0.50560111  0.00143612    -0.84500
C89         C  0.07810177  0.42895999  0.08355132     0.97800
C90         C  0.07815688  0.58259874  0.08390232     0.97600
C91         C  0.74743496  0.25317804  0.75247820    -0.01100
N92         N  0.53829813  0.04340866  0.92940428    -0.04700
N93         N  0.54437041  0.06752225  0.90489014    -0.56800
N94         N  0.56452732  0.96661959  0.95518559    -0.04400
N95         N  0.58926064  0.94303142  0.94848181    -0.58900
N96         N  0.53873639  0.96663838  0.92902130    -0.04000
N97         N  0.54539775  0.94303692  0.90397580    -0.56800
N98         N  0.56415970  0.04334225  0.95547712    -0.03700
N99         N  0.58837322  0.06740752  0.94928314    -0.59300
C100        C  0.57544150  0.08232129  0.91790315     0.97500
C101        C  0.57674687  0.92844498  0.91671578     0.97300
N102        N  0.53938726  0.96668952  0.07029296    -0.04900
N103        N  0.54649772  0.94342575  0.09558944    -0.57400
N104        N  0.56476953  0.04328986  0.04398582    -0.03000
N105        N  0.58964027  0.06672019  0.05070744    -0.58600
N106        N  0.53906431  0.04334801  0.07019983    -0.04900
N107        N  0.54591753  0.06682242  0.09533061    -0.57700
N108        N  0.56498891  0.96666672  0.04397413    -0.02600
N109        N  0.59004793  0.94340072  0.05078549    -0.58700
Mn110      Mn  0.56562565  0.00494124  0.99961012     1.18400
C111        C  0.57791511  0.92901441  0.08278989     0.99600
C112        C  0.57728651  0.08128824  0.08254958     1.00200
N113        N  0.45118930  0.96649743  0.92903751    -0.04900
N114        N  0.44490217  0.94270582  0.90414523    -0.61200
N115        N  0.42511212  0.04310385  0.95568958    -0.03700
N116        N  0.40062635  0.06703811  0.94967034    -0.61900
N117        N  0.45080703  0.04333067  0.92946903    -0.04400
N118        N  0.44432933  0.06745537  0.90502222    -0.61500
N119        N  0.42548404  0.96630974  0.95525137    -0.03300
N120        N  0.40114301  0.94237140  0.94874424    -0.62200
Mn121      Mn  0.49475980  0.00497321  0.92811399     1.10700
C122        C  0.41383673  0.92780981  0.91701768     1.00800
C123        C  0.41318571  0.08208859  0.91822254     1.00900
N124        N  0.45146242  0.04312625  0.07018254    -0.04400
N125        N  0.44520916  0.06713367  0.09482393    -0.59800
N126        N  0.42607521  0.96623060  0.04395017    -0.03800
N127        N  0.40180363  0.94225670  0.05036144    -0.56600
N128        N  0.45188393  0.96636272  0.07008946    -0.05100
N129        N  0.44571374  0.94246446  0.09484565    -0.59400
N130        N  0.42553371  0.04296943  0.04416879    -0.04100
N131        N  0.40109892  0.06687733  0.05055888    -0.56600
Mn132      Mn  0.49539793  0.00489668  0.07127560     1.20200
Mn133      Mn  0.42445935  0.00461062  0.99978195     1.10100
Cl134      Cl  0.49505435  0.00482312  0.99969853    -0.84500
C135        C  0.41394932  0.08178788  0.08199998     0.97800
C136        C  0.41464807  0.92759088  0.08192461     0.97600
C137        C  0.24716364  0.75351182  0.74936262    -0.01100
N138        N  0.95532055  0.04301170  0.57076800    -0.04700
N139        N  0.94863245  0.06656297  0.59584941    -0.56800
N140        N  0.92973920  0.96602544  0.54497209    -0.04400
N141        N  0.90526036  0.94226392  0.55169440    -0.58900
N142        N  0.95548347  0.96628951  0.57115442    -0.04000
N143        N  0.94908353  0.94270483  0.59624287    -0.56800
N144        N  0.92938439  0.04282366  0.54474086    -0.03700
N145        N  0.90450890  0.06627853  0.55161683    -0.59300
C146        C  0.91712039  0.08097787  0.58332056     0.97500
C147        C  0.91792374  0.92785367  0.58350718     0.97300
N148        N  0.95578041  0.96576231  0.42997527    -0.04900
N149        N  0.94968936  0.94181354  0.40521800    -0.57400
N150        N  0.92897964  0.04220512  0.45583764    -0.03000
N151        N  0.90362133  0.06515049  0.44878028    -0.58600
N152        N  0.95475692  0.04242416  0.42969094    -0.04900
N153        N  0.94746167  0.06553969  0.40427815    -0.57700
N154        N  0.93004574  0.96554355  0.45618010    -0.02600
N155        N  0.90590211  0.94142937  0.44978003    -0.58700
Mn156      Mn  0.92848850  0.00415105  0.50043267     1.18400
C157        C  0.91874323  0.92677056  0.41817403     0.99600
C158        C  0.91574836  0.07959884  0.41681378     1.00200
N159        N  0.04274634  0.96611954  0.57071636    -0.04900
N160        N  0.04851451  0.94171021  0.59496438    -0.61200
N161        N  0.06876971  0.04288520  0.54469328    -0.03700
N162        N  0.09317189  0.06682800  0.55087888    -0.61900
N163        N  0.04298404  0.04304528  0.57081672    -0.04400
N164        N  0.04931751  0.06711540  0.59537420    -0.61500
N165        N  0.06848441  0.96600982  0.54453020    -0.03300
N166        N  0.09233181  0.94152596  0.55041744    -0.62200
Mn167      Mn  0.99916907  0.00467187  0.57195309     1.10700
C168        C  0.07931010  0.92655564  0.58173870     1.00800
C169        C  0.08048847  0.08177384  0.58235576     1.00900
N170        N  0.04255700  0.04320461  0.43014311    -0.04400
N171        N  0.04871133  0.06733839  0.40564996    -0.59800
N172        N  0.06883487  0.96640680  0.45591208    -0.03800
N173        N  0.09356311  0.94282577  0.44920631    -0.56600
N174        N  0.04309490  0.96646522  0.42972756    -0.05100
N175        N  0.04973147  0.94291302  0.40465105    -0.59400
N176        N  0.06839537  0.04311905  0.45626142    -0.04100
N177        N  0.09262825  0.06719947  0.45012453    -0.56600
Mn178      Mn  0.99906639  0.00452235  0.42880339     1.20200
Mn179      Mn  0.06971026  0.00457555  0.50037530     1.10100
Cl180      Cl  0.99909005  0.00451945  0.50038121    -0.84500
C181        C  0.07978623  0.08214517  0.41871118     0.97800
C182        C  0.08104277  0.92832089  0.41740000     0.97600
C183        C  0.74694005  0.75625724  0.25081265    -0.01100
C184        C  0.24665144  0.25538027  0.25017465    -0.01100
C185        C  0.74763489  0.25374140  0.24948532    -0.01100
C186        C  0.24894445  0.75415145  0.25090187    -0.01100
C187        C  0.24610692  0.25646554  0.75043331    -0.01100
C188        C  0.74743848  0.75572516  0.75027265    -0.01100
C189        C  0.13744658  0.15349006  0.63984306     0.18400
C190        C  0.12657514  0.16145137  0.67654573    -0.10700
C191        C  0.14788043  0.18339139  0.69819364    -0.11500
C192        C  0.18021119  0.19748503  0.68328697     0.20000
C193        C  0.19077437  0.18996905  0.64635605    -0.13600
C194        C  0.16945375  0.16801085  0.62469151    -0.11800
C195        C  0.20308046  0.21874726  0.70630112     0.01000
C196        C  0.22245763  0.23590113  0.72611747    -0.31900
C197        C  0.11656338  0.12944521  0.61840445     0.02300
C198        C  0.09966153  0.10824098  0.60148024    -0.33500
H199        H  0.10194400  0.15033321  0.68860054     0.13400
H200        H  0.13943945  0.18898944  0.72670559     0.13200
H201        H  0.21572344  0.20069264  0.63452421     0.13100
H202        H  0.17819428  0.16199706  0.59638226     0.12100
C203        C  0.13743632  0.15262164  0.36023323     0.18400
C204        C  0.13179394  0.15488512  0.32138545    -0.10700
C205        C  0.15338911  0.17659184  0.29978926    -0.11500
C206        C  0.18079094  0.19614770  0.31689482     0.20000
C207        C  0.18619935  0.19416746  0.35581728    -0.13600
C208        C  0.16458102  0.17243452  0.37743858    -0.11800
C209        C  0.20386006  0.21753876  0.29429993     0.01000
C210        C  0.22324511  0.23478487  0.27463586    -0.31900
C211        C  0.11618634  0.12917630  0.38207625     0.02300
C212        C  0.09904719  0.10838031  0.39934556    -0.33500
H213        H  0.11098332  0.13962151  0.30774896     0.13400
H214        H  0.14898940  0.17786958  0.26972541     0.13200
H215        H  0.20733793  0.20913058  0.36935176     0.13100
H216        H  0.16928146  0.17082358  0.40743243     0.12100
C217        C  0.81465519  0.81618960  0.68633225     0.18400
C218        C  0.81371274  0.81450884  0.64702824    -0.10700
C219        C  0.83595910  0.83583402  0.62557523    -0.11500
C220        C  0.85927097  0.85894090  0.64332104     0.20000
C221        C  0.86042571  0.86043562  0.68262835    -0.13600
C222        C  0.83818484  0.83911803  0.70407409    -0.11800
C223        C  0.88106165  0.88185994  0.62131673     0.01000
C224        C  0.89841922  0.90218174  0.60356386    -0.31900
C225        C  0.79121119  0.79470670  0.70842692     0.02300
C226        C  0.77144519  0.77697365  0.72713762    -0.33500
H227        H  0.79561845  0.79690140  0.63299741     0.13400
H228        H  0.83473386  0.83451790  0.59521149     0.13200
H229        H  0.87824339  0.87826812  0.69666723     0.13100
H230        H  0.83914067  0.84066777  0.73443572     0.12100
C231        C  0.14006686  0.85903352  0.35856631     0.18400
C232        C  0.17573420  0.85041658  0.37074099    -0.10700
C233        C  0.19743388  0.82848509  0.34950750    -0.11500
C234        C  0.18356499  0.81507451  0.31600266     0.20000
C235        C  0.14784421  0.82359278  0.30387419    -0.13600
C236        C  0.12613515  0.84553639  0.32511557    -0.11800
C237        C  0.20620913  0.79305569  0.29379457     0.01000
C238        C  0.22544992  0.77514451  0.27477254    -0.31900
C239        C  0.11821385  0.88233968  0.37993290     0.02300
C240        C  0.10074006  0.90274517  0.39743001    -0.33500
H241        H  0.18683267  0.86080886  0.39648264     0.13400
H242        H  0.22505571  0.82214045  0.35908300     0.13200
H243        H  0.13689355  0.81343797  0.27794828     0.13100
H244        H  0.09864802  0.85213287  0.31536380     0.12100
C245        C  0.85848672  0.85823793  0.35950494     0.18400
C246        C  0.81983277  0.86117057  0.36127691    -0.10700
C247        C  0.79735128  0.84013973  0.33974670    -0.11500
C248        C  0.81338979  0.81605145  0.31629722     0.20000
C249        C  0.85205132  0.81295045  0.31466437    -0.13600
C250        C  0.87456107  0.83401033  0.33621595    -0.11800
C251        C  0.79015208  0.79485414  0.29365741     0.01000
C252        C  0.77052351  0.77737606  0.27450709    -0.31900
C253        C  0.88143687  0.88073451  0.38085699     0.02300
C254        C  0.89929375  0.90094227  0.39828449    -0.33500
H255        H  0.80709328  0.87987190  0.37908746     0.13400
H256        H  0.76750980  0.84278862  0.34121137     0.13200
H257        H  0.86475979  0.79442699  0.29659821     0.13100
H258        H  0.90440993  0.83157407  0.33452299     0.12100
C259        C  0.81233880  0.19154589  0.31402296     0.18400
C260        C  0.79739403  0.17668277  0.34625704    -0.10700
C261        C  0.81887454  0.15474383  0.36776062    -0.11500
C262        C  0.85541245  0.14756587  0.35713862     0.20000
C263        C  0.87036848  0.16246590  0.32493543    -0.13600
C264        C  0.84888805  0.18440248  0.30343262    -0.11800
C265        C  0.87731769  0.12450032  0.37885927     0.01000
C266        C  0.89528091  0.10452001  0.39651515    -0.31900
C267        C  0.79007418  0.21383281  0.29166687     0.02300
C268        C  0.77111271  0.23213564  0.27277326    -0.33500
H269        H  0.76914582  0.18196344  0.35467236     0.13400
H270        H  0.80697114  0.14329367  0.39253369     0.13200
H271        H  0.89853852  0.15702330  0.31638428     0.13100
H272        H  0.86071207  0.19568912  0.27852448     0.12100
C273        C  0.13689457  0.85523005  0.63899624     0.18400
C274        C  0.17395835  0.84945209  0.62922425    -0.10700
C275        C  0.19583136  0.82801051  0.65092215    -0.11500
C276        C  0.18077543  0.81224717  0.68253531     0.20000
C277        C  0.14357236  0.81768266  0.69206390    -0.13600
C278        C  0.12168182  0.83914306  0.67035045    -0.11800
C279        C  0.20377235  0.79123172  0.70566504     0.01000
C280        C  0.22338314  0.77414098  0.72529439    -0.31900
C281        C  0.11510028  0.87876222  0.61779887     0.02300
C282        C  0.09807722  0.89984144  0.60081295    -0.33500
H283        H  0.18606599  0.86185521  0.60514630     0.13400
H284        H  0.22456653  0.82403664  0.64331894     0.13200
H285        H  0.13164851  0.80566528  0.71647997     0.13100
H286        H  0.09310671  0.84352494  0.67827494     0.12100
C287        C  0.68206997  0.19275334  0.18449445     0.18400
C288        C  0.64675334  0.20269653  0.17249294    -0.10700
C289        C  0.62482222  0.18089795  0.15125964    -0.11500
C290        C  0.63811573  0.14906362  0.14193881     0.20000
C291        C  0.67343801  0.13915837  0.15394229    -0.13600
C292        C  0.69534588  0.16093502  0.17515452    -0.11800
C293        C  0.61555543  0.12640106  0.12035809     0.01000
C294        C  0.59748542  0.10647125  0.10273776    -0.31900
C295        C  0.70461300  0.21495254  0.20665133     0.02300
C296        C  0.72390929  0.23284657  0.22567068    -0.33500
H297        H  0.63617033  0.22721864  0.17960545     0.13400
H298        H  0.59754211  0.18881668  0.14219534     0.13200
H299        H  0.68399844  0.11459584  0.14696925     0.13100
H300        H  0.72257027  0.15294983  0.18433110     0.12100
C301        C  0.31188757  0.19485828  0.18420805     0.18400
C302        C  0.34658724  0.18437480  0.19740058    -0.10700
C303        C  0.36844314  0.16292281  0.17566211    -0.11500
C304        C  0.35572030  0.15188226  0.14060582     0.20000
C305        C  0.32119511  0.16265860  0.12724855    -0.13600
C306        C  0.29934293  0.18410538  0.14898441    -0.11800
C307        C  0.37739702  0.12855849  0.11899090     0.01000
C308        C  0.39462100  0.10787712  0.10159400    -0.31900
C309        C  0.28892406  0.21614470  0.20705510     0.02300
C310        C  0.26968288  0.23378297  0.22644258    -0.33500
H311        H  0.35656676  0.19252052  0.22459691     0.13400
H312        H  0.39502730  0.15467000  0.18634304     0.13200
H313        H  0.31101139  0.15419914  0.10025263     0.13100
H314        H  0.27256174  0.19203838  0.13850295     0.12100
C315        C  0.31249955  0.81524729  0.18435773     0.18400
C316        C  0.29679800  0.83177181  0.15353549    -0.10700
C317        C  0.31840057  0.85335585  0.13179525    -0.11500
C318        C  0.35577239  0.85846941  0.14078861     0.20000
C319        C  0.37149707  0.84182418  0.17149996    -0.13600
C320        C  0.34990315  0.82024562  0.19322976    -0.11800
C321        C  0.37765096  0.88149591  0.11917187     0.01000
C322        C  0.39519077  0.90183701  0.10172801    -0.31900
C323        C  0.29021101  0.79351108  0.20719199     0.02300
C324        C  0.27167231  0.77555163  0.22680306    -0.33500
H325        H  0.26787955  0.82812506  0.14647285     0.13400
H326        H  0.30593488  0.86621605  0.10819064     0.13200
H327        H  0.40032267  0.84570819  0.17878600     0.13100
H328        H  0.36228466  0.80762905  0.21704536     0.12100
C329        C  0.68089417  0.81660627  0.81448598     0.18400
C330        C  0.67224932  0.80886533  0.85185619    -0.10700
C331        C  0.65015541  0.83057335  0.87306760    -0.11500
C332        C  0.63658462  0.86009959  0.85699096     0.20000
C333        C  0.64511497  0.86772978  0.81957580    -0.13600
C334        C  0.66718602  0.84604677  0.79838985    -0.11800
C335        C  0.61449123  0.88290666  0.87891823     0.01000
C336        C  0.59670928  0.90302639  0.89660320    -0.31900
C337        C  0.70409461  0.79464650  0.79269023     0.02300
C338        C  0.72367253  0.77686206  0.77381039    -0.33500
H339        H  0.68271640  0.78618507  0.86461418     0.13400
H340        H  0.64382473  0.82443827  0.90198751     0.13200
H341        H  0.63486747  0.89050931  0.80685568     0.13100
H342        H  0.67370737  0.85230904  0.76954409     0.12100
C343        C  0.35337413  0.15148579  0.86019029     0.18400
C344        C  0.36517536  0.18435868  0.85392645    -0.10700
C345        C  0.34359447  0.20603148  0.83211433    -0.11500
C346        C  0.31014025  0.19491224  0.81647944     0.20000
C347        C  0.29828671  0.16211946  0.82294176    -0.13600
C348        C  0.31982764  0.14048430  0.84471991    -0.11800
C349        C  0.28805539  0.21690087  0.79355232     0.01000
C350        C  0.26917879  0.23480837  0.77408979    -0.31900
C351        C  0.37579160  0.12870830  0.88180782     0.02300
C352        C  0.39354211  0.10819981  0.89894383    -0.33500
H353        H  0.39108125  0.19314218  0.86568756     0.13400
H354        H  0.35305019  0.23133999  0.82730032     0.13200
H355        H  0.27249650  0.15323764  0.81100173     0.13100
H356        H  0.31043622  0.11512205  0.84931148     0.12100
C357        C  0.68269438  0.81767318  0.18490290     0.18400
C358        C  0.69156588  0.85169353  0.18332231    -0.10700
C359        C  0.66988559  0.87352586  0.16192646    -0.11500
C360        C  0.63920191  0.86145974  0.14198592     0.20000
C361        C  0.63046885  0.82739333  0.14333080    -0.13600
C362        C  0.65216943  0.80554117  0.16474663    -0.11800
C363        C  0.61660158  0.88414692  0.12050164     0.01000
C364        C  0.59832983  0.90401081  0.10300926    -0.31900
C365        C  0.70470706  0.79542041  0.20755143     0.02300
C366        C  0.72352455  0.77744752  0.22698449    -0.33500
H367        H  0.71510340  0.86135347  0.19877601     0.13400
H368        H  0.67692348  0.89980710  0.16108198     0.13200
H369        H  0.60682828  0.81778203  0.12800973     0.13100
H370        H  0.64505456  0.77928391  0.16574837     0.12100
C371        C  0.35631605  0.85701421  0.85875666     0.18400
C372        C  0.32107806  0.84740407  0.87123336    -0.10700
C373        C  0.29938048  0.82586461  0.84947814    -0.11500
C374        C  0.31279537  0.81383793  0.81511703     0.20000
C375        C  0.34824887  0.82305242  0.80288700    -0.13600
C376        C  0.36995245  0.84460061  0.82464669    -0.11800
C377        C  0.28992531  0.79261342  0.79211632     0.01000
C378        C  0.27058754  0.77504658  0.77275819    -0.31900
C379        C  0.37774910  0.88065281  0.88017719     0.02300
C380        C  0.39472277  0.90158688  0.89743367    -0.33500
H381        H  0.31019917  0.85690519  0.89749982     0.13400
H382        H  0.27202099  0.81890086  0.85922722     0.13200
H383        H  0.35891598  0.81389735  0.77637709     0.13100
H384        H  0.39711005  0.85191971  0.81465745     0.12100
C385        C  0.85679496  0.14814336  0.64443970     0.18400
C386        C  0.81805076  0.14636254  0.64255770    -0.10700
C387        C  0.79622479  0.16791048  0.66422903    -0.11500
C388        C  0.81298717  0.19138816  0.68796658     0.20000
C389        C  0.85174001  0.19310148  0.68997365    -0.13600
C390        C  0.87358353  0.17153585  0.66828709    -0.11800
C391        C  0.79041744  0.21354418  0.71031513     0.01000
C392        C  0.77120469  0.23173408  0.72916743    -0.31900
C393        C  0.87914116  0.12572262  0.62218536     0.02300
C394        C  0.89696339  0.10601983  0.60390766    -0.33500
H395        H  0.80472347  0.12831553  0.62435595     0.13400
H396        H  0.76631283  0.16626123  0.66248363     0.13200
H397        H  0.86504352  0.21107648  0.70828297     0.13100
H398        H  0.90349436  0.17309091  0.67012043     0.12100
C399        C  0.63446918  0.15195644  0.86003095     0.18400
C400        C  0.62768254  0.15644846  0.82162633    -0.10700
C401        C  0.65051600  0.17741838  0.80044721    -0.11500
C402        C  0.68024906  0.19396368  0.81757062     0.20000
C403        C  0.68681058  0.18975192  0.85606358    -0.13600
C404        C  0.66396642  0.16877154  0.87725320    -0.11800
C405        C  0.70421529  0.21488031  0.79549417     0.01000
C406        C  0.72399350  0.23218497  0.77636777    -0.31900
C407        C  0.61219028  0.12900246  0.88133391     0.02300
C408        C  0.59468323  0.10843428  0.89847681    -0.33500
H409        H  0.60504789  0.14345554  0.80799863     0.13400
H410        H  0.64520205  0.18050040  0.77070056     0.13200
H411        H  0.70972742  0.20242785  0.86958131     0.13100
H412        H  0.66954943  0.16535887  0.90690172     0.12100
C413        C  0.18057648  0.31554424  0.18472899     0.18400
C414        C  0.18741164  0.31933964  0.14622435    -0.10700
C415        C  0.16544418  0.34093748  0.12477681    -0.11500
C416        C  0.13654403  0.35880814  0.14174581     0.20000
C417        C  0.12953620  0.35478340  0.18017738    -0.13600
C418        C  0.15148997  0.33320482  0.20160856    -0.11800
C419        C  0.11491100  0.38214088  0.12013454     0.01000
C420        C  0.09756252  0.40284657  0.10292617    -0.31900
C421        C  0.20369708  0.29400423  0.20708216     0.02300
C422        C  0.22309069  0.27640342  0.22634366    -0.33500
H423        H  0.20985948  0.30584033  0.13288869     0.13400
H424        H  0.17120818  0.34394858  0.09511393     0.13200
H425        H  0.10736440  0.36856432  0.19362599     0.13100
H426        H  0.14598624  0.33049841  0.23136236     0.12100
C427        C  0.18343824  0.69368189  0.18537643     0.18400
C428        C  0.14481006  0.69447044  0.18923132    -0.10700
C429        C  0.12265566  0.67315374  0.16767660    -0.11500
C430        C  0.13903721  0.65097040  0.14216378     0.20000
C431        C  0.17765939  0.65037362  0.13810902    -0.13600
C432        C  0.19980832  0.67168407  0.15966170    -0.11800
C433        C  0.11638693  0.62816434  0.12094313     0.01000
C434        C  0.09822719  0.60802679  0.10376300    -0.31900
C435        C  0.20628372  0.71507575  0.20813339     0.02300
C436        C  0.22551918  0.73275869  0.22741973    -0.33500
H437        H  0.13186787  0.71136992  0.20905434     0.13400
H438        H  0.09283903  0.67376686  0.17111920     0.13200
H439        H  0.19063862  0.63326128  0.11854498     0.13100
H440        H  0.22964824  0.67084972  0.15647678     0.12100
C441        C  0.81191704  0.69474521  0.18599088     0.18400
C442        C  0.84338227  0.70652338  0.16712966    -0.10700
C443        C  0.86498159  0.68458695  0.14572389    -0.11500
C444        C  0.85517648  0.65081433  0.14311746     0.20000
C445        C  0.82374480  0.63907378  0.16203489    -0.13600
C446        C  0.80217629  0.66097991  0.18340963    -0.11800
C447        C  0.87727035  0.62806413  0.12122824     0.01000
C448        C  0.89491201  0.60787428  0.10357190    -0.31900
C449        C  0.78960772  0.71712400  0.20809849     0.02300
C450        C  0.77043105  0.73511515  0.22709572    -0.33500
H451        H  0.85118850  0.73258459  0.16898022     0.13400
H452        H  0.88925718  0.69392331  0.13125477     0.13200
H453        H  0.81593153  0.61300673  0.16026227     0.13100
H454        H  0.77793445  0.65160393  0.19791724     0.12100
C455        C  0.13786751  0.65027117  0.85866170     0.18400
C456        C  0.12315911  0.68029555  0.84495813    -0.10700
C457        C  0.14530446  0.70182215  0.82362500    -0.11500
C458        C  0.18223325  0.69340244  0.81589464     0.20000
C459        C  0.19697773  0.66349829  0.82979633    -0.13600
C460        C  0.17486252  0.64199895  0.85110392    -0.11800
C461        C  0.20482723  0.71503004  0.79314013     0.01000
C462        C  0.22393390  0.73257412  0.77356300    -0.31900
C463        C  0.11508910  0.62764110  0.88003212     0.02300
C464        C  0.09721239  0.60752862  0.89757850    -0.33500
H465        H  0.09459124  0.68695046  0.85057221     0.13400
H466        H  0.13359688  0.72486464  0.81297002     0.13200
H467        H  0.22546701  0.65670576  0.82395370     0.13100
H468        H  0.18653598  0.61884797  0.86150047     0.12100
C469        C  0.81183431  0.69525266  0.81739032     0.18400
C470        C  0.79546279  0.66872741  0.83691983    -0.10700
C471        C  0.81729323  0.64736897  0.85879465    -0.11500
C472        C  0.85565179  0.65237545  0.86130565     0.20000
C473        C  0.87200833  0.67910929  0.84207121    -0.13600
C474        C  0.85014985  0.70049802  0.82017920    -0.11800
C475        C  0.87813225  0.62938857  0.88265140     0.01000
C476        C  0.89573210  0.60872712  0.89976405    -0.31900
C477        C  0.78939200  0.71668008  0.79408295     0.02300
C478        C  0.77044206  0.73431333  0.77434089    -0.33500
H479        H  0.76589130  0.66439353  0.83498670     0.13400
H480        H  0.80432182  0.62675811  0.87344361     0.13200
H481        H  0.90163372  0.68321153  0.84369809     0.13100
H482        H  0.86313794  0.72091198  0.80520355     0.12100
C483        C  0.18120211  0.31646339  0.81734438     0.18400
C484        C  0.19296153  0.32522263  0.85355090    -0.10700
C485        C  0.17134078  0.34658607  0.87566270    -0.11500
C486        C  0.13785050  0.35924127  0.86166284     0.20000
C487        C  0.12601493  0.35030100  0.82556576    -0.13600
C488        C  0.14761525  0.32896137  0.80347557    -0.11800
C489        C  0.11614294  0.38220048  0.88370726     0.01000
C490        C  0.09833455  0.40257112  0.90094199    -0.31900
C491        C  0.20379696  0.29512793  0.79417883     0.02300
C492        C  0.22281370  0.27759489  0.77444337    -0.33500
H493        H  0.21891384  0.31574881  0.86454592     0.13400
H494        H  0.18085280  0.35343531  0.90347404     0.13200
H495        H  0.10025733  0.36004196  0.81439433     0.13100
H496        H  0.13827288  0.32240642  0.77551383     0.12100
C497        C  0.85741247  0.35714123  0.14048950     0.18400
C498        C  0.87315451  0.33899834  0.17013132    -0.10700
C499        C  0.85120256  0.31740533  0.19157404    -0.11500
C500        C  0.81338587  0.31385955  0.18350620     0.20000
C501        C  0.79775488  0.33170018  0.15358046    -0.13600
C502        C  0.81969763  0.35328209  0.13214479    -0.11800
C503        C  0.79048023  0.29250805  0.20636387     0.01000
C504        C  0.77111811  0.27498752  0.22576922    -0.31900
C505        C  0.87949459  0.38066383  0.11958194     0.02300
C506        C  0.89690609  0.40159115  0.10277524    -0.33500
H507        H  0.90224242  0.34184635  0.17693840     0.13400
H508        H  0.86360365  0.30376771  0.21465131     0.13200
H509        H  0.76855764  0.32919484  0.14708048     0.13100
H510        H  0.80717554  0.36724895  0.10938405     0.12100
C511        C  0.85613425  0.35762355  0.86174503     0.18400
C512        C  0.86753679  0.34821794  0.82564034    -0.10700
C513        C  0.84570097  0.32659843  0.80410684    -0.11500
C514        C  0.81228458  0.31423825  0.81849609     0.20000
C515        C  0.80096926  0.32343385  0.85472550    -0.13600
C516        C  0.82282784  0.34507855  0.87628264    -0.11800
C517        C  0.78947812  0.29258485  0.79581016     0.01000
C518        C  0.77053982  0.27476410  0.77626615    -0.31900
C519        C  0.87800357  0.38096997  0.88324393     0.02300
C520        C  0.89564776  0.40162189  0.90031287    -0.33500
H521        H  0.89313012  0.35782840  0.81401266     0.13400
H522        H  0.85473556  0.31972041  0.77613954     0.13200
H523        H  0.77517569  0.31408924  0.86616831     0.13100
H524        H  0.81361701  0.35225123  0.90409369     0.12100
C525        C  0.68135301  0.69558585  0.68459984     0.18400
C526        C  0.66054687  0.67068317  0.70242239    -0.10700
C527        C  0.63872435  0.64882332  0.68120575    -0.11500
C528        C  0.63751700  0.65172161  0.64200118     0.20000
C529        C  0.65804875  0.67683790  0.62416325    -0.13600
C530        C  0.67989949  0.69872828  0.64541002    -0.11800
C531        C  0.61610707  0.62826574  0.62019562     0.01000
C532        C  0.59899767  0.60745812  0.60281522    -0.31900
C533        C  0.70463631  0.71736710  0.70658391     0.02300
C534        C  0.72412369  0.73487179  0.72591158    -0.33500
H535        H  0.66145448  0.66797860  0.73268427     0.13400
H536        H  0.62307836  0.62947271  0.69533350     0.13200
H537        H  0.65743825  0.67929049  0.59387200     0.13100
H538        H  0.69587507  0.71786276  0.63129308     0.12100
C539        C  0.31280722  0.31625629  0.68525160     0.18400
C540        C  0.35124012  0.31123830  0.68421526    -0.10700
C541        C  0.37367930  0.33211277  0.66238777    -0.11500
C542        C  0.35776821  0.35807931  0.64148021     0.20000
C543        C  0.31932848  0.36299506  0.64244269    -0.13600
C544        C  0.29691523  0.34214546  0.66425042    -0.11800
C545        C  0.38075453  0.38024432  0.61974293     0.01000
C546        C  0.39876281  0.40022645  0.60216248    -0.31900
C547        C  0.28967677  0.29508457  0.70802180     0.02300
C548        C  0.27003629  0.27760905  0.72714593    -0.33500
H549        H  0.36384021  0.29131723  0.70037416     0.13400
H550        H  0.40336944  0.32813408  0.66197424     0.13200
H551        H  0.30672010  0.38305296  0.62650510     0.13100
H552        H  0.26725334  0.34629021  0.66485931     0.12100
C553        C  0.63720611  0.35486974  0.36078300     0.18400
C554        C  0.62703159  0.34771881  0.32364698    -0.10700
C555        C  0.64905035  0.32659113  0.30165281    -0.11500
C556        C  0.68139039  0.31250039  0.31664533     0.20000
C557        C  0.69124821  0.31920857  0.35396699    -0.13600
C558        C  0.66922518  0.34033899  0.37596650    -0.11800
C559        C  0.70477951  0.29176705  0.29351114     0.01000
C560        C  0.72430967  0.27467294  0.27375694    -0.31900
C561        C  0.61584993  0.37834188  0.38262646     0.02300
C562        C  0.59899738  0.39933877  0.39998615    -0.33500
H563        H  0.60242004  0.35886827  0.31153237     0.13400
H564        H  0.64112105  0.32158501  0.27284998     0.13200
H565        H  0.71616719  0.30845683  0.36588909     0.13100
H566        H  0.67745894  0.34574612  0.40458717     0.12100
C567        C  0.31500007  0.69302555  0.31529740     0.18400
C568        C  0.31333730  0.65858143  0.30866581    -0.10700
C569        C  0.33485406  0.63665451  0.33010148    -0.11500
C570        C  0.35819595  0.64902086  0.35831280     0.20000
C571        C  0.35994537  0.68349260  0.36492602    -0.13600
C572        C  0.33839338  0.70545401  0.34345559    -0.11800
C573        C  0.38013120  0.62619827  0.38038128     0.01000
C574        C  0.39771915  0.60592455  0.39804058    -0.31900
C575        C  0.29248243  0.71540573  0.29330617     0.02300
C576        C  0.27302651  0.73327646  0.27439975    -0.33500
H577        H  0.29535448  0.64868017  0.28698837     0.13400
H578        H  0.33325134  0.61006832  0.32472125     0.13200
H579        H  0.37787873  0.69335511  0.38665866     0.13100
H580        H  0.33990220  0.73204024  0.34884489     0.12100
C581        C  0.68240832  0.69451553  0.31608623     0.18400
C582        C  0.65092617  0.67940984  0.30053418    -0.10700
C583        C  0.62964389  0.65730584  0.32200604    -0.11500
C584        C  0.63970540  0.65015530  0.35917550     0.20000
C585        C  0.67111555  0.66537617  0.37477766    -0.13600
C586        C  0.69240259  0.68748912  0.35329850    -0.11800
C587        C  0.61836919  0.62658727  0.38089849     0.01000
C588        C  0.60106680  0.60599469  0.39839846    -0.31900
C589        C  0.70467841  0.71680445  0.29370984     0.02300
C590        C  0.72355515  0.73497143  0.27456873    -0.33500
H591        H  0.64295438  0.68457893  0.27177905     0.13400
H592        H  0.60551405  0.64563283  0.30956140     0.13200
H593        H  0.67927480  0.65998489  0.40342404     0.13100
H594        H  0.71671993  0.69894921  0.36561882     0.12100
C595        C  0.68033878  0.31158475  0.68564445     0.18400
C596        C  0.69166163  0.32029587  0.64930457    -0.10700
C597        C  0.66991406  0.34176103  0.62743343    -0.11500
C598        C  0.63666565  0.35465052  0.64173947     0.20000
C599        C  0.62498247  0.34543986  0.67782832    -0.13600
C600        C  0.64674235  0.32396572  0.69971053    -0.11800
C601        C  0.61553949  0.37853268  0.62016771     0.01000
C602        C  0.59885999  0.39976913  0.60296705    -0.31900
C603        C  0.70370261  0.29078007  0.70878525     0.02300
C604        C  0.72363171  0.27381649  0.72830708    -0.33500
H605        H  0.71755700  0.31090029  0.63809925     0.13400
H606        H  0.67932469  0.34873934  0.59963894     0.13200
H607        H  0.59939841  0.35528705  0.68927154     0.13100
H608        H  0.63765871  0.31742843  0.72775235     0.12100
C609        C  0.31309179  0.69232286  0.68491181     0.18400
C610        C  0.33584641  0.66880445  0.70272847    -0.10700
C611        C  0.35778779  0.64714508  0.68136951    -0.11500
C612        C  0.35712248  0.64889160  0.64206817     0.20000
C613        C  0.33445374  0.67249088  0.62423585    -0.13600
C614        C  0.31249762  0.69416704  0.64561145    -0.11800
C615        C  0.37907026  0.62596227  0.62017579     0.01000
C616        C  0.39681863  0.60573009  0.60263320    -0.31900
C617        C  0.29009609  0.71422319  0.70698087     0.02300
C618        C  0.27072489  0.73213728  0.72591057    -0.33500
H619        H  0.33648640  0.66711052  0.73308803     0.13400
H620        H  0.37509763  0.62893422  0.69547335     0.13200
H621        H  0.33360610  0.67400412  0.59387223     0.13100
H622        H  0.29496389  0.71221531  0.63153007     0.12100
C623        C  0.31393171  0.31591108  0.31386525     0.18400
C624        C  0.30832109  0.31875985  0.35266422    -0.10700
C625        C  0.33047519  0.34028125  0.37396454    -0.11500
C626        C  0.35837807  0.35904656  0.35658397     0.20000
C627        C  0.36418169  0.35599649  0.31781245    -0.13600
C628        C  0.34201965  0.33447050  0.29650729    -0.11800
C629        C  0.38029820  0.38208754  0.37833064     0.01000
C630        C  0.39780017  0.40223596  0.39622420    -0.31900
C631        C  0.29051550  0.29438653  0.29182404     0.02300
C632        C  0.27067018  0.27666755  0.27319978    -0.33500
H633        H  0.28666734  0.30455576  0.36637499     0.13400
H634        H  0.32565095  0.34250082  0.40388828     0.13200
H635        H  0.38559086  0.37044604  0.30403577     0.13100
H636        H  0.34658682  0.33249097  0.26651975     0.12100
loop_ 
_geom_bond_atom_site_label_1 
_geom_bond_atom_site_label_2 
_geom_bond_distance 
_geom_bond_site_symmetry_2 
_ccdc_geom_bond_type 
N1            N2   1.321       .  A
N1            N7   1.316       .  A
N1          Mn30   2.205       .  S
N2            C9   1.351       .  A
N3            N5   1.317       .  A
N3            N4   1.321       .  A
N3          Mn19   2.205       .  S
N4           C10   1.351       .  A
N5            N6   1.321       .  A
N5          Mn30   2.208       .  S
N6           C10   1.351       .  A
N7            N8   1.321       .  A
N7          Mn19   2.205       .  S
N8            C9   1.351       .  A
C9          C630   1.437       .  S
C10         C574   1.438       .  S
N11          N17   1.317       .  A
N11          N12   1.321       .  A
N11         Mn41   2.206       .  S
N12          C20   1.351       .  A
N13          N14   1.321       .  A
N13          N15   1.317       .  A
N13         Mn19   2.205       .  S
N14          C21   1.351       .  A
N15          N16   1.321       .  A
N15         Mn41   2.206       .  S
N16          C21   1.351       .  A
N17          N18   1.321       .  A
N17         Mn19   2.204       .  S
N18          C20   1.351       .  A
Mn19        Cl43   2.550       .  S
C20         C616   1.437       .  S
C21         C546   1.437       .  S
N22          N23   1.322       .  A
N22          N28   1.317       .  A
N22         Mn30   2.207       .  S
N23          C31   1.351       .  A
N24          N26   1.317       .  A
N24          N25   1.322       .  A
N24         Mn42   2.208       .  S
N25          C32   1.352       .  A
N26          N27   1.321       .  A
N26         Mn30   2.206       .  S
N27          C32   1.351       .  A
N28          N29   1.322       .  A
N28         Mn42   2.208       .  S
N29          C31   1.351       .  A
Mn30        Cl43   2.549       .  S
C31         C588   1.440       .  S
C32         C562   1.439       .  S
N33          N34   1.322       .  A
N33          N39   1.316       .  A
N33         Mn41   2.206       .  S
N34          C44   1.351       .  A
N35          N36   1.321       .  A
N35          N37   1.317       .  A
N35         Mn42   2.209       .  S
N36          C45   1.351       .  A
N37          N38   1.322       .  A
N37         Mn41   2.208       .  S
N38          C45   1.352       .  A
N39          N40   1.322       .  A
N39         Mn42   2.208       .  S
N40          C44   1.352       .  A
Mn41        Cl43   2.550       .  S
Mn42        Cl43   2.551       .  S
C44         C602   1.440       .  S
C45         C532   1.439       .  S
N46          N47   1.322       .  A
N46          N52   1.316       .  A
N46         Mn75   2.208       .  S
N47          C54   1.352       .  A
N48          N50   1.317       .  A
N48          N49   1.321       .  A
N48         Mn64   2.206   1_556  S
N49          C55   1.351       .  A
N50          N51   1.322       .  A
N50         Mn75   2.208       .  S
N51          C55   1.352       .  A
N52          N53   1.321       .  A
N52         Mn64   2.204   1_556  S
N53          C54   1.351       .  A
C54         C520   1.439       .  S
C55         C476   1.439       .  S
N56          N62   1.317       .  A
N56          N57   1.321       .  A
N56         Mn86   2.203       .  S
N57          C65   1.351       .  A
N58          N59   1.321       .  A
N58          N60   1.317       .  A
N58         Mn64   2.203       .  S
N59          C66   1.351       .  A
N60          N61   1.322       .  A
N60         Mn86   2.207       .  S
N61          C66   1.352       .  A
N62          N63   1.321       .  A
N62         Mn64   2.204       .  S
N63          C65   1.351       .  A
Mn64        Cl88   2.547       .  S
C65         C448   1.435       .  S
C66         C506   1.438       .  S
N67          N68   1.321       .  A
N67          N73   1.317       .  A
N67         Mn75   2.205   1_455  S
N68          C76   1.351       .  A
N69          N71   1.316       .  A
N69          N70   1.320       .  A
N69         Mn87   2.198   1_556  S
N70          C77   1.350       .  A
N71          N72   1.321       .  A
N71         Mn75   2.207   1_455  S
N72          C77   1.352       .  A
N73          N74   1.321       .  A
N73         Mn87   2.206   1_556  S
N74          C76   1.351       .  A
Mn75        Cl88   2.551   1_556  S
C76         C464   1.438       .  S
C77         C490   1.436       .  S
N78          N79   1.321       .  A
N78          N84   1.316       .  A
N78         Mn86   2.203   1_455  S
N79          C89   1.351       .  A
N80          N81   1.320       .  A
N80          N82   1.317       .  A
N80         Mn87   2.200       .  S
N81          C90   1.350       .  A
N82          N83   1.321       .  A
N82         Mn86   2.208   1_455  S
N83          C90   1.352       .  A
N84          N85   1.321       .  A
N84         Mn87   2.203       .  S
N85          C89   1.351       .  A
Mn86        Cl88   2.551       .  S
Mn87        Cl88   2.546   1_455  S
C89         C420   1.436       .  S
C90         C434   1.436       .  S
C91         C392   1.470       .  S
C91         C406   1.466       .  S
C91         C518   1.470       .  S
C91         C604   1.470       .  S
N92          N93   1.321       .  A
N92          N98   1.316       .  A
N92        Mn121   2.201       .  S
N93         C100   1.351       .  A
N94          N96   1.317       .  A
N94          N95   1.321       .  A
N94        Mn110   2.204   1_565  S
N95         C101   1.351       .  A
N96          N97   1.321       .  A
N96        Mn121   2.208   1_565  S
N97         C101   1.351       .  A
N98          N99   1.320       .  A
N98        Mn110   2.200       .  S
N99         C100   1.350       .  A
C100        C408   1.434       .  S
C101        C336   1.438       .  S
N102        N108   1.316       .  A
N102        N103   1.321       .  A
N102       Mn132   2.204   1_565  S
N103        C111   1.351       .  A
N104        N105   1.321       .  A
N104        N106   1.316       .  A
N104       Mn110   2.204   1_554  S
N105        C112   1.351       .  A
N106        N107   1.321       .  A
N106       Mn132   2.205       .  S
N107        C112   1.351       .  A
N108        N109   1.321       .  A
N108       Mn110   2.202   1_564  S
N109        C111   1.350       .  A
Mn110      Cl134   2.547       .  S
C111        C364   1.436       .  S
C112        C294   1.437       .  S
N113        N114   1.321       .  A
N113        N119   1.316       .  A
N113       Mn121   2.203   1_565  S
N114        C122   1.351       .  A
N115        N117   1.316       .  A
N115        N116   1.321       .  A
N115       Mn133   2.201       .  S
N116        C123   1.351       .  A
N117        N118   1.321       .  A
N117       Mn121   2.208       .  S
N118        C123   1.352       .  A
N119        N120   1.321       .  A
N119       Mn133   2.206   1_565  S
N120        C122   1.351       .  A
Mn121      Cl134   2.549       .  S
C122        C380   1.437       .  S
C123        C352   1.438       .  S
N124        N125   1.321       .  A
N124        N130   1.317       .  A
N124       Mn132   2.204       .  S
N125        C135   1.351       .  A
N126        N127   1.320       .  A
N126        N128   1.317       .  A
N126       Mn133   2.200   1_564  S
N127        C136   1.350       .  A
N128        N129   1.321       .  A
N128       Mn132   2.203   1_565  S
N129        C136   1.351       .  A
N130        N131   1.321       .  A
N130       Mn133   2.204   1_554  S
N131        C135   1.351       .  A
Mn132      Cl134   2.549   1_554  S
Mn133      Cl134   2.548       .  S
C135        C308   1.437       .  S
C136        C322   1.434       .  S
C137        C280   1.467       .  S
C137        C378   1.467       .  S
C137        C462   1.467       .  S
C137        C618   1.467       .  S
N138        N139   1.321       .  A
N138        N144   1.317       .  A
N138       Mn167   2.205       .  S
N139        C146   1.351       .  A
N140        N142   1.316       .  A
N140        N141   1.321       .  A
N140       Mn156   2.202   1_565  S
N141        C147   1.351       .  A
N142        N143   1.321       .  A
N142       Mn167   2.203   1_565  S
N143        C147   1.351       .  A
N144        N145   1.322       .  A
N144       Mn156   2.211       .  S
N145        C146   1.352       .  A
C146        C394   1.439       .  S
C147        C224   1.437       .  S
N148        N154   1.317       .  A
N148        N149   1.321       .  A
N148       Mn178   2.204   1_565  S
N149        C157   1.351       .  A
N150        N151   1.321       .  A
N150        N152   1.317       .  A
N150       Mn156   2.202       .  S
N151        C158   1.350       .  A
N152        N153   1.321       .  A
N152       Mn178   2.204       .  S
N153        C158   1.351       .  A
N154        N155   1.321       .  A
N154       Mn156   2.208   1_565  S
N155        C157   1.351       .  A
Mn156      Cl180   2.548       .  S
C157        C254   1.437       .  S
C158        C266   1.436       .  S
N159        N160   1.321       .  A
N159        N165   1.316       .  A
N159       Mn167   2.204   1_465  S
N160        C168   1.351       .  A
N161        N163   1.316       .  A
N161        N162   1.321       .  A
N161       Mn179   2.201       .  S
N162        C169   1.351       .  A
N163        N164   1.321       .  A
N163       Mn167   2.206   1_455  S
N164        C169   1.352       .  A
N165        N166   1.321       .  A
N165       Mn179   2.205   1_565  S
N166        C168   1.351       .  A
Mn167      Cl180   2.549       .  S
C168        C282   1.437       .  S
C169        C198   1.438       .  S
N170        N171   1.321       .  A
N170        N176   1.317       .  A
N170       Mn178   2.207   1_455  S
N171        C181   1.351       .  A
N172        N173   1.321       .  A
N172        N174   1.316       .  A
N172       Mn179   2.201   1_565  S
N173        C182   1.351       .  A
N174        N175   1.321       .  A
N174       Mn178   2.201   1_465  S
N175        C182   1.350       .  A
N176        N177   1.321       .  A
N176       Mn179   2.203       .  S
N177        C181   1.351       .  A
Mn178      Cl180   2.549       .  S
Mn179      Cl180   2.549   1_455  S
C181        C212   1.437       .  S
C182        C240   1.435       .  S
C183        C252   1.467       .  S
C183        C366   1.467       .  S
C183        C450   1.466       .  S
C183        C590   1.469       .  S
C184        C210   1.468       .  S
C184        C310   1.467       .  S
C184        C422   1.467       .  S
C184        C632   1.467       .  S
C185        C268   1.467       .  S
C185        C296   1.467       .  S
C185        C504   1.469       .  S
C185        C560   1.469       .  S
C186        C238   1.465       .  S
C186        C324   1.465       .  S
C186        C436   1.466       .  S
C186        C576   1.467       .  S
C187        C196   1.469       .  S
C187        C350   1.468       .  S
C187        C492   1.467       .  S
C187        C548   1.467       .  S
C188        C226   1.468       .  S
C188        C338   1.468       .  S
C188        C478   1.469       .  S
C188        C534   1.469       .  S
C189        C197   1.442       .  S
C189        C190   1.401       .  A
C189        C194   1.402       .  A
C190        C191   1.399       .  A
C190        H199   1.083       .  S
C191        C192   1.401       .  A
C191        H200   1.084       .  S
C192        C195   1.442       .  S
C192        C193   1.402       .  A
C193        C194   1.400       .  A
C193        H201   1.083       .  S
C194        H202   1.083       .  S
C195        C196   1.208       .  T
C197        C198   1.207       .  T
C203        C211   1.441       .  S
C203        C204   1.401       .  A
C203        C208   1.402       .  A
C204        C205   1.399       .  A
C204        H213   1.083       .  S
C205        C206   1.401       .  A
C205        H214   1.083       .  S
C206        C209   1.441       .  S
C206        C207   1.402       .  A
C207        C208   1.400       .  A
C207        H215   1.083       .  S
C208        H216   1.083       .  S
C209        C210   1.208       .  T
C211        C212   1.207       .  T
C217        C225   1.441       .  S
C217        C218   1.402       .  A
C217        C222   1.401       .  A
C218        C219   1.400       .  A
C218        H227   1.083       .  S
C219        C220   1.401       .  A
C219        H228   1.083       .  S
C220        C223   1.441       .  S
C220        C221   1.402       .  A
C221        C222   1.399       .  A
C221        H229   1.083       .  S
C222        H230   1.084       .  S
C223        C224   1.207       .  T
C225        C226   1.208       .  T
C231        C239   1.439       .  S
C231        C232   1.401       .  A
C231        C236   1.401       .  A
C232        C233   1.398       .  A
C232        H241   1.083       .  S
C233        C234   1.401       .  A
C233        H242   1.084       .  S
C234        C237   1.439       .  S
C234        C235   1.401       .  A
C235        C236   1.399       .  A
C235        H243   1.083       .  S
C236        H244   1.083       .  S
C237        C238   1.206       .  T
C239        C240   1.205       .  T
C245        C253   1.441       .  S
C245        C246   1.401       .  A
C245        C250   1.402       .  A
C246        C247   1.399       .  A
C246        H255   1.084       .  S
C247        C248   1.401       .  A
C247        H256   1.083       .  S
C248        C251   1.440       .  S
C248        C249   1.402       .  A
C249        C250   1.400       .  A
C249        H257   1.084       .  S
C250        H258   1.083       .  S
C251        C252   1.207       .  T
C253        C254   1.207       .  T
C259        C267   1.441       .  S
C259        C260   1.402       .  A
C259        C264   1.401       .  A
C260        C261   1.399       .  A
C260        H269   1.083       .  S
C261        C262   1.402       .  A
C261        H270   1.083       .  S
C262        C265   1.441       .  S
C262        C263   1.401       .  A
C263        C264   1.399       .  A
C263        H271   1.083       .  S
C264        H272   1.084       .  S
C265        C266   1.206       .  T
C267        C268   1.207       .  T
C273        C281   1.441       .  S
C273        C274   1.401       .  A
C273        C278   1.402       .  A
C274        C275   1.399       .  A
C274        H283   1.083       .  S
C275        C276   1.401       .  A
C275        H284   1.084       .  S
C276        C279   1.440       .  S
C276        C277   1.402       .  A
C277        C278   1.400       .  A
C277        H285   1.083       .  S
C278        H286   1.083       .  S
C279        C280   1.207       .  T
C281        C282   1.206       .  T
C287        C295   1.441       .  S
C287        C288   1.402       .  A
C287        C292   1.401       .  A
C288        C289   1.400       .  A
C288        H297   1.083       .  S
C289        C290   1.402       .  A
C289        H298   1.083       .  S
C290        C293   1.441       .  S
C290        C291   1.402       .  A
C291        C292   1.399       .  A
C291        H299   1.084       .  S
C292        H300   1.083       .  S
C293        C294   1.207       .  T
C295        C296   1.207       .  T
C301        C309   1.440       .  S
C301        C302   1.402       .  A
C301        C306   1.401       .  A
C302        C303   1.400       .  A
C302        H311   1.083       .  S
C303        C304   1.402       .  A
C303        H312   1.083       .  S
C304        C307   1.441       .  S
C304        C305   1.401       .  A
C305        C306   1.399       .  A
C305        H313   1.083       .  S
C306        H314   1.083       .  S
C307        C308   1.206       .  T
C309        C310   1.207       .  T
C315        C323   1.438       .  S
C315        C316   1.401       .  A
C315        C320   1.401       .  A
C316        C317   1.399       .  A
C316        H325   1.083       .  S
C317        C318   1.401       .  A
C317        H326   1.083       .  S
C318        C321   1.438       .  S
C318        C319   1.401       .  A
C319        C320   1.398       .  A
C319        H327   1.083       .  S
C320        H328   1.083       .  S
C321        C322   1.205       .  T
C323        C324   1.206       .  T
C329        C337   1.441       .  S
C329        C330   1.402       .  A
C329        C334   1.401       .  A
C330        C331   1.400       .  A
C330        H339   1.083       .  S
C331        C332   1.402       .  A
C331        H340   1.083       .  S
C332        C335   1.442       .  S
C332        C333   1.401       .  A
C333        C334   1.399       .  A
C333        H341   1.083       .  S
C334        H342   1.083       .  S
C335        C336   1.207       .  T
C337        C338   1.207       .  T
C343        C351   1.442       .  S
C343        C344   1.402       .  A
C343        C348   1.401       .  A
C344        C345   1.401       .  A
C344        H353   1.083       .  S
C345        C346   1.402       .  A
C345        H354   1.083       .  S
C346        C349   1.441       .  S
C346        C347   1.401       .  A
C347        C348   1.398       .  A
C347        H355   1.083       .  S
C348        H356   1.084       .  S
C349        C350   1.208       .  T
C351        C352   1.207       .  T
C357        C365   1.440       .  S
C357        C358   1.401       .  A
C357        C362   1.402       .  A
C358        C359   1.399       .  A
C358        H367   1.084       .  S
C359        C360   1.402       .  A
C359        H368   1.083       .  S
C360        C363   1.441       .  S
C360        C361   1.401       .  A
C361        C362   1.400       .  A
C361        H369   1.083       .  S
C362        H370   1.083       .  S
C363        C364   1.206       .  T
C365        C366   1.207       .  T
C371        C379   1.441       .  S
C371        C372   1.401       .  A
C371        C376   1.402       .  A
C372        C373   1.399       .  A
C372        H381   1.083       .  S
C373        C374   1.401       .  A
C373        H382   1.084       .  S
C374        C377   1.440       .  S
C374        C375   1.402       .  A
C375        C376   1.400       .  A
C375        H383   1.083       .  S
C376        H384   1.083       .  S
C377        C378   1.207       .  T
C379        C380   1.207       .  T
C385        C393   1.444       .  S
C385        C386   1.402       .  A
C385        C390   1.402       .  A
C386        C387   1.400       .  A
C386        H395   1.084       .  S
C387        C388   1.402       .  A
C387        H396   1.083       .  S
C388        C391   1.443       .  S
C388        C389   1.402       .  A
C389        C390   1.401       .  A
C389        H397   1.083       .  S
C390        H398   1.083       .  S
C391        C392   1.209       .  T
C393        C394   1.208       .  T
C399        C407   1.438       .  S
C399        C400   1.401       .  A
C399        C404   1.401       .  A
C400        C401   1.398       .  A
C400        H409   1.083       .  S
C401        C402   1.401       .  A
C401        H410   1.084       .  S
C402        C405   1.439       .  S
C402        C403   1.401       .  A
C403        C404   1.399       .  A
C403        H411   1.083       .  S
C404        H412   1.083       .  S
C405        C406   1.206       .  T
C407        C408   1.205       .  T
C413        C421   1.440       .  S
C413        C414   1.402       .  A
C413        C418   1.401       .  A
C414        C415   1.400       .  A
C414        H423   1.083       .  S
C415        C416   1.402       .  A
C415        H424   1.083       .  S
C416        C419   1.440       .  S
C416        C417   1.401       .  A
C417        C418   1.399       .  A
C417        H425   1.083       .  S
C418        H426   1.084       .  S
C419        C420   1.206       .  T
C421        C422   1.207       .  T
C427        C435   1.439       .  S
C427        C428   1.401       .  A
C427        C432   1.401       .  A
C428        C429   1.399       .  A
C428        H437   1.084       .  S
C429        C430   1.401       .  A
C429        H438   1.083       .  S
C430        C433   1.440       .  S
C430        C431   1.402       .  A
C431        C432   1.399       .  A
C431        H439   1.084       .  S
C432        H440   1.083       .  S
C433        C434   1.206       .  T
C435        C436   1.206       .  T
C441        C449   1.439       .  S
C441        C442   1.402       .  A
C441        C446   1.401       .  A
C442        C443   1.400       .  A
C442        H451   1.083       .  S
C443        C444   1.401       .  A
C443        H452   1.083       .  S
C444        C447   1.440       .  S
C444        C445   1.401       .  A
C445        C446   1.398       .  A
C445        H453   1.083       .  S
C446        H454   1.084       .  S
C447        C448   1.206       .  T
C449        C450   1.206       .  T
C455        C463   1.442       .  S
C455        C456   1.402       .  A
C455        C460   1.402       .  A
C456        C457   1.400       .  A
C456        H465   1.083       .  S
C457        C458   1.402       .  A
C457        H466   1.083       .  S
C458        C461   1.440       .  S
C458        C459   1.401       .  A
C459        C460   1.399       .  A
C459        H467   1.084       .  S
C460        H468   1.083       .  S
C461        C462   1.207       .  T
C463        C464   1.207       .  T
C469        C477   1.442       .  S
C469        C470   1.401       .  A
C469        C474   1.402       .  A
C470        C471   1.399       .  A
C470        H479   1.084       .  S
C471        C472   1.402       .  A
C471        H480   1.083       .  S
C472        C475   1.443       .  S
C472        C473   1.402       .  A
C473        C474   1.401       .  A
C473        H481   1.083       .  S
C474        H482   1.083       .  S
C475        C476   1.208       .  T
C477        C478   1.208       .  T
C483        C491   1.440       .  S
C483        C484   1.402       .  A
C483        C488   1.401       .  A
C484        C485   1.400       .  A
C484        H493   1.083       .  S
C485        C486   1.402       .  A
C485        H494   1.083       .  S
C486        C489   1.440       .  S
C486        C487   1.401       .  A
C487        C488   1.399       .  A
C487        H495   1.083       .  S
C488        H496   1.083       .  S
C489        C490   1.206       .  T
C491        C492   1.207       .  T
C497        C505   1.442       .  S
C497        C498   1.402       .  A
C497        C502   1.402       .  A
C498        C499   1.400       .  A
C498        H507   1.083       .  S
C499        C500   1.402       .  A
C499        H508   1.083       .  S
C500        C503   1.442       .  S
C500        C501   1.401       .  A
C501        C502   1.400       .  A
C501        H509   1.084       .  S
C502        H510   1.083       .  S
C503        C504   1.208       .  T
C505        C506   1.207       .  T
C511        C519   1.444       .  S
C511        C512   1.402       .  A
C511        C516   1.402       .  A
C512        C513   1.400       .  A
C512        H521   1.083       .  S
C513        C514   1.401       .  A
C513        H522   1.084       .  S
C514        C517   1.443       .  S
C514        C515   1.402       .  A
C515        C516   1.401       .  A
C515        H523   1.083       .  S
C516        H524   1.083       .  S
C517        C518   1.209       .  T
C519        C520   1.208       .  T
C525        C533   1.442       .  S
C525        C526   1.401       .  A
C525        C530   1.402       .  A
C526        C527   1.399       .  A
C526        H535   1.084       .  S
C527        C528   1.402       .  A
C527        H536   1.083       .  S
C528        C531   1.443       .  S
C528        C529   1.402       .  A
C529        C530   1.401       .  A
C529        H537   1.083       .  S
C530        H538   1.083       .  S
C531        C532   1.208       .  T
C533        C534   1.208       .  T
C539        C547   1.441       .  S
C539        C540   1.402       .  A
C539        C544   1.401       .  A
C540        C541   1.400       .  A
C540        H549   1.084       .  S
C541        C542   1.402       .  A
C541        H550   1.083       .  S
C542        C545   1.441       .  S
C542        C543   1.402       .  A
C543        C544   1.399       .  A
C543        H551   1.084       .  S
C544        H552   1.083       .  S
C545        C546   1.207       .  T
C547        C548   1.207       .  T
C553        C561   1.443       .  S
C553        C554   1.402       .  A
C553        C558   1.402       .  A
C554        C555   1.400       .  A
C554        H563   1.083       .  S
C555        C556   1.402       .  A
C555        H564   1.083       .  S
C556        C559   1.442       .  S
C556        C557   1.402       .  A
C557        C558   1.400       .  A
C557        H565   1.083       .  S
C558        H566   1.083       .  S
C559        C560   1.208       .  T
C561        C562   1.208       .  T
C567        C575   1.441       .  S
C567        C568   1.401       .  A
C567        C572   1.402       .  A
C568        C569   1.399       .  A
C568        H577   1.084       .  S
C569        C570   1.401       .  A
C569        H578   1.083       .  S
C570        C573   1.442       .  S
C570        C571   1.402       .  A
C571        C572   1.401       .  A
C571        H579   1.083       .  S
C572        H580   1.083       .  S
C573        C574   1.207       .  T
C575        C576   1.207       .  T
C581        C589   1.442       .  S
C581        C582   1.401       .  A
C581        C586   1.402       .  A
C582        C583   1.400       .  A
C582        H591   1.084       .  S
C583        C584   1.402       .  A
C583        H592   1.083       .  S
C584        C587   1.444       .  S
C584        C585   1.402       .  A
C585        C586   1.401       .  A
C585        H593   1.083       .  S
C586        H594   1.083       .  S
C587        C588   1.208       .  T
C589        C590   1.208       .  T
C595        C603   1.443       .  S
C595        C596   1.402       .  A
C595        C600   1.402       .  A
C596        C597   1.400       .  A
C596        H605   1.083       .  S
C597        C598   1.402       .  A
C597        H606   1.083       .  S
C598        C601   1.444       .  S
C598        C599   1.402       .  A
C599        C600   1.401       .  A
C599        H607   1.083       .  S
C600        H608   1.083       .  S
C601        C602   1.208       .  T
C603        C604   1.209       .  T
C609        C617   1.440       .  S
C609        C610   1.401       .  A
C609        C614   1.402       .  A
C610        C611   1.399       .  A
C610        H619   1.084       .  S
C611        C612   1.402       .  A
C611        H620   1.083       .  S
C612        C615   1.441       .  S
C612        C613   1.402       .  A
C613        C614   1.400       .  A
C613        H621   1.083       .  S
C614        H622   1.083       .  S
C615        C616   1.207       .  T
C617        C618   1.207       .  T
C623        C631   1.440       .  S
C623        C624   1.401       .  A
C623        C628   1.401       .  A
C624        C625   1.399       .  A
C624        H633   1.083       .  S
C625        C626   1.401       .  A
C625        H634   1.083       .  S
C626        C629   1.441       .  S
C626        C627   1.402       .  A
C627        C628   1.400       .  A
C627        H635   1.083       .  S
C628        H636   1.083       .  S
C629        C630   1.207       .  T
C631        C632   1.207       .  T
