geometry optimzed in LAMMPS
_audit_creation_date              2020-11-30 
_audit_creation_method            'lammps2cif' 
_symmetry_space_group_name_H-M    'P1' 
_symmetry_Int_Tables_number       1 
_symmetry_cell_setting            triclinic 
loop_ 
_symmetry_equiv_pos_as_xyz 
  x,y,z 
_cell_length_a                    53.30821784 
_cell_length_b                    53.261699524357034 
_cell_length_c                    37.528352079270654 
_cell_angle_alpha                 90.0763284828365 
_cell_angle_beta                  89.98247940847232 
_cell_angle_gamma                 89.83749576268939 
loop_ 
_atom_site_label 
_atom_site_type_symbol 
_atom_site_fract_x 
_atom_site_fract_y 
_atom_site_fract_z 
_atom_site_charge 
N1          N  0.47970307  0.20728664  0.29374906    -0.27200
N2          N  0.47520030  0.22758092  0.31314085    -0.35000
C3          C  0.46328054  0.22070197  0.34319503     0.01200
C4          C  0.46038877  0.19491416  0.34273187     0.07200
C5          C  0.47076990  0.18701847  0.31091264    -0.05900
H6          H  0.45679061  0.23355508  0.36356891     0.07800
H7          H  0.47150418  0.16800800  0.30076706     0.09000
Cu8        Cu  0.48450446  0.26391303  0.29735176     0.44200
Cu9        Cu  0.49819372  0.20776742  0.24516742     0.42000
Cu10       Cu  0.51938532  0.26841343  0.21512799     0.43900
N11         N  0.49440184  0.29790571  0.27376737    -0.34600
N12         N  0.50707160  0.29925596  0.24353638    -0.28800
C13         C  0.51005387  0.32345582  0.23452831    -0.04900
C14         C  0.49844149  0.33811684  0.26002773     0.07300
C15         C  0.48898646  0.32138897  0.28482258     0.01100
H16         H  0.52003885  0.32986453  0.21116285     0.08700
H17         H  0.47865452  0.32593954  0.30880209     0.07800
N18         N  0.52955542  0.23508021  0.19104454    -0.36000
N19         N  0.52144040  0.21285105  0.20152736    -0.28200
C20         C  0.53189119  0.19502842  0.18086298    -0.03400
C21         C  0.54750880  0.20668892  0.15666110     0.05200
C22         C  0.54542423  0.23205191  0.16354243     0.03300
H23         H  0.52873127  0.17507352  0.18368012     0.08400
H24         H  0.55474022  0.24718533  0.14968425     0.07200
O25         O  0.45871551  0.49593129  0.23305075    -0.72800
O26         O  0.53362908  0.49600120  0.22846409    -0.73800
O27         O  0.49637534  0.45812424  0.23256566    -0.62400
O28         O  0.49642896  0.53378879  0.22938165    -0.70900
O29         O  0.49758239  0.53476005  0.28850636    -0.70400
O30         O  0.49839442  0.45947290  0.29143707    -0.61700
O31         O  0.53555419  0.49739233  0.28728664    -0.74200
O32         O  0.46021748  0.49671995  0.29198763    -0.72900
Cu33       Cu  0.49618418  0.49590985  0.22882185     1.04600
Cu34       Cu  0.49797394  0.49713201  0.29185389     1.04300
C35         C  0.44751012  0.49606357  0.26315888     0.93400
C36         C  0.54656129  0.49674537  0.25699528     0.92500
C37         C  0.49768226  0.44681609  0.26257758     0.84600
C38         C  0.49734337  0.54612960  0.25857953     0.90900
N39         N  0.69475283  0.49215576  0.27156004    -0.27200
N40         N  0.69428687  0.50772566  0.24412042    -0.35000
C41         C  0.67033730  0.51227396  0.23492658     0.01200
C42         C  0.65500519  0.49922316  0.25793766     0.07200
C43         C  0.67101234  0.48649064  0.28064870    -0.05900
H44         H  0.66452241  0.52449498  0.21343683     0.07800
H45         H  0.66580920  0.47404772  0.30216721     0.09000
Cu46       Cu  0.72590554  0.52279303  0.22063328     0.44200
Cu47       Cu  0.72762592  0.47940488  0.29550931     0.42000
Cu48       Cu  0.78535826  0.50316328  0.25753952     0.43900
N49         N  0.76008700  0.53495147  0.20130194    -0.34600
N50         N  0.78190075  0.52768586  0.21459709    -0.28800
C51         C  0.80044835  0.53799856  0.19522762    -0.04900
C52         C  0.78972328  0.55227872  0.16847185     0.07300
C53         C  0.76413857  0.55009582  0.17323790     0.01100
H54         H  0.82024749  0.53498772  0.19992435     0.08700
H55         H  0.74955031  0.55829470  0.15689083     0.07800
N56         N  0.78419204  0.47824748  0.30029024    -0.36000
N57         N  0.76310990  0.46950494  0.31407645    -0.28200
C58         C  0.76872246  0.45407749  0.34136947    -0.03400
C59         C  0.79452979  0.45324517  0.34513620     0.05200
C60         C  0.80375032  0.46864797  0.31852337     0.03300
H61         H  0.75502558  0.44449671  0.35765609     0.08400
H62         H  0.82323477  0.47265899  0.31287874     0.07200
N63         N  0.48473230  0.78128063  0.20313546    -0.27200
N64         N  0.47406801  0.76004588  0.19309515    -0.35000
C65         C  0.45893406  0.76463118  0.16515802     0.01200
C66         C  0.46005940  0.79000206  0.15758560     0.07200
C67         C  0.47670826  0.79996041  0.18191993    -0.05900
H68         H  0.44791260  0.75057738  0.15149433     0.07800
H69         H  0.48223970  0.81941592  0.18443098     0.09000
Cu70       Cu  0.48068945  0.72606609  0.21828565     0.44200
Cu71       Cu  0.50878481  0.78394784  0.24615523     0.42000
Cu72       Cu  0.52192269  0.72675638  0.29569574     0.43900
N73         N  0.49170619  0.69410776  0.24563014    -0.34600
N74         N  0.50707241  0.69405551  0.27333361    -0.28800
C75         C  0.51116398  0.67008907  0.28333448    -0.04900
C76         C  0.49743952  0.65450135  0.26116808     0.07300
C77         C  0.48552819  0.67033355  0.23746822     0.01100
H78         H  0.52331240  0.66441134  0.30499941     0.08700
H79         H  0.47368706  0.66495273  0.21534854     0.07800
N80         N  0.53381638  0.76244479  0.31143057    -0.36000
N81         N  0.52946116  0.78300904  0.29273231    -0.28200
C82         C  0.53988471  0.80277974  0.30931680    -0.03400
C83         C  0.55094103  0.79451165  0.34056667     0.05200
C84         C  0.54699017  0.76873811  0.34069761     0.03300
H85         H  0.53994958  0.82153262  0.29854114     0.08400
H86         H  0.55330454  0.75551578  0.36065738     0.07200
N87         N  0.21206812  0.48574657  0.20230227    -0.27200
N88         N  0.23340091  0.47556471  0.19151870    -0.35000
C89         C  0.22882518  0.46027242  0.16372373     0.01200
C90         C  0.20341797  0.46107976  0.15635632     0.07200
C91         C  0.19332151  0.47718808  0.18160517    -0.05900
H92         H  0.24287625  0.44904192  0.15027554     0.07800
H93         H  0.17369752  0.48153784  0.18567026     0.09000
Cu94       Cu  0.26746123  0.48202333  0.21635617     0.44200
Cu95       Cu  0.20943830  0.50914309  0.24659106     0.42000
Cu96       Cu  0.26659474  0.51822427  0.29840581     0.43900
N97         N  0.29937174  0.49157190  0.24467476    -0.34600
N98         N  0.29926582  0.50475090  0.27458008    -0.28800
C99         C  0.32314055  0.50837059  0.28510556    -0.04900
C100        C  0.33890278  0.49718875  0.26038623     0.07300
C101        C  0.32319479  0.48644744  0.23543372     0.01100
H102        H  0.32864594  0.51887529  0.30851285     0.08700
H103        H  0.32860820  0.47570204  0.21217372     0.07800
N104        N  0.23137682  0.53118999  0.31408860    -0.36000
N105        N  0.21081705  0.52847230  0.29475446    -0.28200
C106        C  0.19146027  0.53938716  0.31186247    -0.03400
C107        C  0.20006198  0.54902593  0.34389389     0.05200
C108        C  0.22554084  0.54377701  0.34411443     0.03300
H109        H  0.17270665  0.54069611  0.30111873     0.08400
H110        H  0.23885904  0.54874176  0.36467283     0.07200
N111        N  0.48229524  0.78648118  0.78982767    -0.27200
N112        N  0.47456782  0.76509928  0.80383405    -0.35000
C113        C  0.46050436  0.77009430  0.83272854     0.01200
C114        C  0.45956824  0.79583223  0.83728134     0.07200
C115        C  0.47322518  0.80566653  0.80928253    -0.05900
H116        H  0.45183743  0.75602729  0.84942815     0.07800
H117        H  0.47616571  0.82524365  0.80310762     0.09000
Cu118      Cu  0.48349129  0.73018496  0.78315867     0.44200
Cu119      Cu  0.50567137  0.78878977  0.74590273     0.42000
Cu120      Cu  0.52135937  0.73075509  0.70262139     0.43900
N121        N  0.49472528  0.69822423  0.75607490    -0.34600
N122        N  0.50842256  0.69857071  0.72671039    -0.28800
C123        C  0.51268762  0.67491016  0.71591552    -0.04900
C124        C  0.50075431  0.65892642  0.73928294     0.07300
C125        C  0.48983786  0.67425577  0.76470429     0.01100
H126        H  0.52419252  0.66983795  0.69328032     0.08700
H127        H  0.47912786  0.66841894  0.78772441     0.07800
N128        N  0.53427724  0.76508249  0.68549798    -0.36000
N129        N  0.52920267  0.78634967  0.70213627    -0.28200
C130        C  0.54099302  0.80519884  0.68539266    -0.03400
C131        C  0.55353690  0.79540229  0.65613689     0.05200
C132        C  0.54912528  0.76983401  0.65739797     0.03300
H133        H  0.54059967  0.82443718  0.69438508     0.08400
H134        H  0.55593191  0.75574538  0.63894911     0.07200
O135        O  0.49818265  0.46303009  0.71472149    -0.72800
O136        O  0.49854769  0.53844347  0.71341515    -0.73800
O137        O  0.53584738  0.50049947  0.71297482    -0.62400
O138        O  0.46050953  0.50104150  0.71484178    -0.70900
O139        O  0.46151971  0.50162996  0.77391149    -0.70400
O140        O  0.53678046  0.50074615  0.77193087    -0.61700
O141        O  0.49934746  0.53847906  0.77230818    -0.74200
O142        O  0.49875937  0.46351938  0.77383614    -0.72900
Cu143      Cu  0.49821095  0.50069592  0.71189859     1.04600
Cu144      Cu  0.49910530  0.50108214  0.77501659     1.04300
C145        C  0.49865661  0.45141117  0.74446544     0.93400
C146        C  0.49939202  0.55044717  0.74292602     0.92500
C147        C  0.54828193  0.50084617  0.74202263     0.84600
C148        C  0.44914223  0.50184112  0.74480562     0.90900
N149        N  0.30094176  0.50986895  0.73859968    -0.27200
N150        N  0.30202441  0.49428837  0.76597483    -0.35000
C151        C  0.32619646  0.48910609  0.77330247     0.01200
C152        C  0.34096057  0.50196015  0.74926293     0.07200
C153        C  0.32444086  0.51506181  0.72779931    -0.05900
H154        H  0.33251899  0.47672735  0.79430471     0.07800
H155        H  0.32913573  0.52719696  0.70570979     0.09000
Cu156      Cu  0.27060347  0.48022420  0.79143382     0.44200
Cu157      Cu  0.26747532  0.52249977  0.71633422     0.42000
Cu158      Cu  0.21001976  0.50013354  0.75712435     0.43900
N159        N  0.23664131  0.46798684  0.81166413    -0.34600
N160        N  0.21453869  0.47532943  0.79943222    -0.28800
C161        C  0.19641762  0.46430188  0.81880578    -0.04900
C162        C  0.20770241  0.44908362  0.84399276     0.07300
C163        C  0.23318028  0.45208079  0.83901908     0.01100
H164        H  0.17651170  0.46735297  0.81511815     0.08700
H165        H  0.24810978  0.44382913  0.85465881     0.07800
N166        N  0.21083144  0.52329832  0.71254221    -0.36000
N167        N  0.23178226  0.53120137  0.69747709    -0.28200
C168        C  0.22592108  0.54519625  0.66882661    -0.03400
C169        C  0.20003495  0.54600394  0.66535966     0.05200
C170        C  0.19110654  0.53219131  0.69397489     0.03300
H171        H  0.23953087  0.55408022  0.65160379     0.08400
H172        H  0.17180756  0.52930196  0.70154465     0.07200
N173        N  0.48873628  0.30372057  0.73588441    -0.27200
N174        N  0.50188065  0.30388335  0.76578817    -0.35000
C175        C  0.50685575  0.32777247  0.77495986     0.01200
C176        C  0.49621931  0.34332775  0.74972279     0.07200
C177        C  0.48499162  0.32755566  0.72525089    -0.05900
H178        H  0.51739413  0.33338279  0.79827412     0.07800
H179        H  0.47473923  0.33300059  0.70159533     0.09000
Cu180      Cu  0.51288976  0.27173130  0.79249559     0.44200
Cu181      Cu  0.47651985  0.27110073  0.71085075     0.42000
Cu182      Cu  0.49825741  0.21267440  0.74871579     0.43900
N183        N  0.52431839  0.23705839  0.81134694    -0.34600
N184        N  0.51996063  0.21566765  0.79464210    -0.28800
C185        C  0.53123821  0.19693817  0.81257811    -0.04900
C186        C  0.54271985  0.20685810  0.84267224     0.07300
C187        C  0.53808926  0.23244831  0.84061825     0.01100
H188        H  0.53143216  0.17771792  0.80360483     0.08700
H189        H  0.54437518  0.24677242  0.85900789     0.07800
N190        N  0.47467193  0.21464067  0.70456199    -0.36000
N191        N  0.46672519  0.23605132  0.69072514    -0.28200
C192        C  0.45220137  0.23107240  0.66224314    -0.03400
C193        C  0.45058906  0.20526490  0.65822107     0.05200
C194        C  0.46534403  0.19548601  0.68526624     0.03300
H195        H  0.44416817  0.24526580  0.64509462     0.08400
H196        H  0.46915659  0.17585291  0.69036013     0.07200
N197        N  0.78368778  0.52878248  0.79220297    -0.27200
N198        N  0.76178034  0.53585337  0.80543032    -0.35000
C199        C  0.76569952  0.54992776  0.83468691     0.01200
C200        C  0.79125776  0.55151127  0.84029576     0.07200
C201        C  0.80213828  0.53816574  0.81268362    -0.05900
H202        H  0.75103169  0.55794058  0.85110321     0.07800
H203        H  0.82195689  0.53518644  0.80807784     0.09000
Cu204      Cu  0.72757904  0.52483460  0.78428290     0.44200
Cu205      Cu  0.78742162  0.50503912  0.74867914     0.42000
Cu206      Cu  0.72994458  0.47737419  0.71497230     0.43900
N207        N  0.69597904  0.50992509  0.76000180    -0.34600
N208        N  0.69675294  0.49248674  0.73487399    -0.28800
C209        C  0.67313819  0.48669514  0.72525479    -0.04900
C210        C  0.65682912  0.50102131  0.74550102     0.07300
C211        C  0.67188860  0.51563929  0.76708130     0.01100
H212        H  0.66819881  0.47284257  0.70532154     0.08700
H213        H  0.66580031  0.52923979  0.78668887     0.07800
N214        N  0.76556765  0.46753673  0.69704464    -0.36000
N215        N  0.78642935  0.47810883  0.70874859    -0.28200
C216        C  0.80605001  0.46879434  0.69040278    -0.03400
C217        C  0.79708498  0.45165478  0.66586003     0.05200
C218        C  0.77140312  0.45113334  0.67100050     0.03300
H219        H  0.82534719  0.47431425  0.69443248     0.08400
H220        H  0.75786988  0.44032485  0.65599799     0.07200
N221        N  0.99107598  0.80277708  0.76879349    -0.27200
N222        N  0.00328458  0.80146260  0.73819080    -0.35000
C223        C  0.00892371  0.82476809  0.72723192     0.01200
C224        C  0.00009006  0.84150378  0.75239787     0.07200
C225        C  0.98869022  0.82701937  0.77825278    -0.05900
H226        H  0.01862867  0.82919016  0.70271179     0.07800
H227        H  0.97880914  0.83359554  0.80167386     0.09000
Cu228      Cu  0.01148915  0.76817894  0.71267527     0.44200
Cu229      Cu  0.97718521  0.77151300  0.79488660     0.42000
Cu230      Cu  0.98832739  0.71094552  0.75172058     0.43900
N231        N  0.01905900  0.73301076  0.69243128    -0.34600
N232        N  0.01064249  0.71189845  0.70647404    -0.28800
C233        C  0.01965980  0.69241892  0.68747535    -0.04900
C234        C  0.03424023  0.70192674  0.66020947     0.07300
C235        C  0.03366155  0.72762704  0.66428589     0.01100
H236        H  0.01630582  0.67285577  0.69350833     0.08700
H237        H  0.04343656  0.74139121  0.64833785     0.07800
N238        N  0.96714302  0.71577309  0.79760206    -0.36000
N239        N  0.96325339  0.73766359  0.81337578    -0.28200
C240        C  0.94903457  0.73412229  0.84254033    -0.03400
C241        C  0.94346164  0.70884357  0.84495524     0.05200
C242        C  0.95550502  0.69774281  0.81633398     0.03300
H243        H  0.94382596  0.74880294  0.86104192     0.08400
H244        H  0.95586630  0.67797313  0.80970621     0.07200
O245        O  0.04218628  0.99794231  0.71643331    -0.72800
O246        O  0.96644563  0.00037837  0.71327616    -0.73800
O247        O  0.00537984  0.03678207  0.71525865    -0.62400
O248        O  0.00311507  0.96148602  0.71386367    -0.70900
O249        O  0.00265785  0.96131551  0.77291085    -0.70400
O250        O  0.00391167  0.03628032  0.77418535    -0.61700
O251        O  0.96573055  0.99957457  0.77199991    -0.74200
O252        O  0.04084070  0.99833325  0.77552576    -0.72900
Cu253      Cu  0.00435391  0.99913792  0.71259944     1.04600
Cu254      Cu  0.00324325  0.99881825  0.77563564     1.04300
C255        C  0.05339480  0.99803657  0.74656429     0.93400
C256        C  0.95395764  0.00035566  0.74233676     0.92500
C257        C  0.00468067  0.04848623  0.74500073     0.84600
C258        C  0.00240739  0.94950064  0.74326291     0.90900
N259        N  0.29023428  0.01792265  0.70849180    -0.27200
N260        N  0.26955060  0.02911907  0.69714330    -0.35000
C261        C  0.27533412  0.04417293  0.66958492     0.01200
C262        C  0.30078221  0.04211086  0.66303832     0.07200
C263        C  0.30969999  0.02553680  0.68842652    -0.05900
H264        H  0.26194209  0.05549609  0.65501796     0.07800
H265        H  0.32892390  0.01959737  0.69229714     0.09000
Cu266      Cu  0.23426292  0.02275927  0.71885464     0.44200
Cu267      Cu  0.29114425  0.99288762  0.75086783     0.42000
Cu268      Cu  0.23222807  0.98077093  0.79505490     0.43900
N269        N  0.20122347  0.01119823  0.74320156    -0.34600
N270        N  0.20055062  0.99574017  0.77075839    -0.28800
C271        C  0.17648048  0.99084068  0.77890601    -0.04900
C272        C  0.16133513  0.00399914  0.75559537     0.07300
C273        C  0.17756010  0.01661800  0.73319768     0.01100
H274        H  0.17045818  0.97829612  0.79985664     0.08700
H275        H  0.17255999  0.02835337  0.71078298     0.07800
N276        N  0.26632887  0.96642203  0.81251422    -0.36000
N277        N  0.28777009  0.97042109  0.79580332    -0.28200
C278        C  0.30633705  0.95895707  0.81379041    -0.03400
C279        C  0.29617172  0.94700215  0.84320105     0.05200
C280        C  0.27073272  0.95241968  0.84170835     0.03300
H281        H  0.32595540  0.95971266  0.80643107     0.08400
H282        H  0.25655430  0.94753997  0.86101616     0.07200
N283        N  0.97599075  0.28519527  0.71090909    -0.27200
N284        N  0.97091407  0.26382767  0.69448426    -0.35000
C285        C  0.95623292  0.26849284  0.66612234     0.01200
C286        C  0.95169828  0.29399939  0.66474835     0.07200
C287        C  0.96468731  0.30410878  0.69325880    -0.05900
H288        H  0.94965451  0.25439946  0.64760074     0.07800
H289        H  0.96597878  0.32373635  0.70045582     0.09000
Cu290      Cu  0.98441652  0.22930736  0.71087490     0.44200
Cu291      Cu  0.99855425  0.28724504  0.75613161     0.42000
Cu292      Cu  0.02087756  0.22774907  0.79231967     0.43900
N293        N  0.99878242  0.19672168  0.73277886    -0.34600
N294        N  0.01161505  0.19596675  0.76291745    -0.28800
C295        C  0.01724384  0.17190631  0.77037339    -0.04900
C296        C  0.00788218  0.15694369  0.74332965     0.07300
C297        C  0.99599024  0.17325027  0.72023037     0.01100
H298        H  0.02710196  0.16570021  0.79399477     0.08700
H299        H  0.98521123  0.16839141  0.69679746     0.07800
N300        N  0.03061528  0.26266063  0.81300220    -0.36000
N301        N  0.02252033  0.28423910  0.79977227    -0.28200
C302        C  0.03277810  0.30321877  0.81841623    -0.03400
C303        C  0.04828149  0.29314041  0.84424662     0.05200
C304        C  0.04630190  0.26739365  0.84032511     0.03300
H305        H  0.02934773  0.32292493  0.81337988     0.08400
H306        H  0.05556691  0.25315590  0.85614467     0.07200
N307        N  0.80484281  0.01159309  0.76188343    -0.27200
N308        N  0.80509239  0.99338677  0.73796788    -0.35000
C309        C  0.82903098  0.98744041  0.73029951     0.01200
C310        C  0.84468659  0.00249880  0.75055751     0.07200
C311        C  0.82861145  0.01790025  0.76982593    -0.05900
H312        H  0.83466269  0.97328683  0.71116513     0.07800
H313        H  0.83355037  0.03313000  0.78738357     0.09000
Cu314      Cu  0.77277775  0.97868944  0.71554946     0.44200
Cu315      Cu  0.77212849  0.02636742  0.78350983     0.42000
Cu316      Cu  0.71320009  0.00247637  0.74931835     0.43900
N317        N  0.73820317  0.96972444  0.69382585    -0.34600
N318        N  0.71653213  0.97855039  0.70570172    -0.28800
C319        C  0.69794361  0.96955689  0.68509595    -0.04900
C320        C  0.70849131  0.95464626  0.65878953     0.07300
C321        C  0.73397669  0.95492026  0.66542995     0.01100
H322        H  0.67822265  0.97324684  0.68945470     0.08700
H323        H  0.74843395  0.94525806  0.65046659     0.07800
N324        N  0.71589341  0.02600224  0.79343582    -0.36000
N325        N  0.73741309  0.03493307  0.80551057    -0.28200
C326        C  0.73291032  0.04940591  0.83420401    -0.03400
C327        C  0.70741717  0.04932925  0.84084098     0.05200
C328        C  0.69713527  0.03455719  0.81423901     0.03300
H329        H  0.74718435  0.05918342  0.84928589     0.08400
H330        H  0.67746899  0.03067356  0.80988359     0.07200
N331        N  0.99107391  0.19744649  0.25988485    -0.27200
N332        N  0.00154551  0.19818272  0.22795974    -0.35000
C333        C  0.00689136  0.17458804  0.21752264     0.01200
C334        C  0.99975486  0.15838039  0.24442061     0.07200
C335        C  0.98950876  0.17345477  0.27063429    -0.05900
H336        H  0.01515479  0.16958011  0.19214620     0.07800
H337        H  0.98075062  0.16742698  0.29516842     0.09000
Cu338      Cu  0.00809385  0.23128276  0.20033034     0.44200
Cu339      Cu  0.97783888  0.22870891  0.28663101     0.42000
Cu340      Cu  0.98620331  0.28842336  0.24251687     0.43900
N341        N  0.01613106  0.26700454  0.18146284    -0.34600
N342        N  0.00867504  0.28792077  0.19726919    -0.28800
C343        C  0.01887002  0.30768176  0.18029808    -0.04900
C344        C  0.03313006  0.29880131  0.15201202     0.07300
C345        C  0.03107837  0.27290912  0.15389530     0.01100
H346        H  0.01702846  0.32686603  0.18923352     0.08700
H347        H  0.04040142  0.25929378  0.13700415     0.07800
N348        N  0.96527342  0.28372778  0.28872165    -0.36000
N349        N  0.96287460  0.26201918  0.30535904    -0.28200
C350        C  0.94970683  0.26552281  0.33552308    -0.03400
C351        C  0.94297350  0.29058876  0.33764488     0.05200
C352        C  0.95346836  0.30159718  0.30774520     0.03300
H353        H  0.94656936  0.25108437  0.35521316     0.08400
H354        H  0.95321923  0.32132757  0.30094708     0.07200
O355        O  0.03857662  0.00127624  0.21071664    -0.72800
O356        O  0.96317582  0.99851145  0.21322397    -0.73800
O357        O  0.99919494  0.03757080  0.21032617    -0.62400
O358        O  0.00251057  0.96219548  0.21384747    -0.70900
O359        O  0.00257679  0.96351607  0.27287434    -0.70400
O360        O  0.00059592  0.03862141  0.26932092    -0.61700
O361        O  0.96390415  0.00039617  0.27219140    -0.74200
O362        O  0.03929667  0.00193946  0.26967787    -0.72900
Cu363      Cu  0.00081598  0.99982608  0.20996296     1.04600
Cu364      Cu  0.00161789  0.00116464  0.27304682     1.04300
C365        C  0.05092912  0.00168458  0.23991165     0.93400
C366        C  0.95159249  0.99946209  0.24303483     0.92500
C367        C  0.99940230  0.05001516  0.23943079     0.84600
C368        C  0.00293836  0.95093763  0.24391553     0.90900
N369        N  0.71561900  0.98275523  0.29409690    -0.27200
N370        N  0.73707916  0.97403627  0.30683028    -0.35000
C371        C  0.73235285  0.96003143  0.33583282     0.01200
C372        C  0.70678884  0.96026323  0.34185860     0.07200
C373        C  0.69669908  0.97458633  0.31473298    -0.05900
H374        H  0.74644158  0.95010004  0.35109845     0.07800
H375        H  0.67703847  0.97817812  0.30968344     0.09000
Cu376      Cu  0.77183108  0.98092626  0.28398789     0.44200
Cu377      Cu  0.71267531  0.00442140  0.24843059     0.42000
Cu378      Cu  0.77054952  0.01456080  0.20060789     0.43900
N379        N  0.80387587  0.99109080  0.25619633    -0.34600
N380        N  0.80335231  0.00308291  0.22537398    -0.28800
C381        C  0.82701775  0.00728976  0.21451761    -0.04900
C382        C  0.84315379  0.99734669  0.23964974     0.07300
C383        C  0.82790965  0.98741331  0.26584401     0.01100
H384        H  0.83206379  0.01726955  0.19048479     0.08700
H385        H  0.83385025  0.97823947  0.29013423     0.07800
N386        N  0.73610628  0.02823776  0.18388641    -0.36000
N387        N  0.71497770  0.02511229  0.20178787    -0.28200
C388        C  0.69639154  0.03743838  0.18492040    -0.03400
C389        C  0.70642512  0.04891372  0.15515126     0.05200
C390        C  0.73153305  0.04248932  0.15505980     0.03300
H391        H  0.67704094  0.03792289  0.19362103     0.08400
H392        H  0.74552676  0.04812067  0.13581902     0.07200
N393        N  0.97226903  0.71635210  0.20841637    -0.27200
N394        N  0.97007138  0.73722337  0.18961261    -0.35000
C395        C  0.95652381  0.73241837  0.16014699     0.01200
C396        C  0.95012718  0.70725889  0.16019244     0.07200
C397        C  0.96008459  0.69776826  0.19147740    -0.05900
H398        H  0.95175387  0.74619988  0.14008501     0.07800
H399        H  0.95816696  0.67894407  0.20177181     0.09000
Cu400      Cu  0.98509262  0.77138381  0.20515623     0.44200
Cu401      Cu  0.99212157  0.71359107  0.25596693     0.42000
Cu402      Cu  0.02205093  0.77044423  0.28620654     0.43900
N403        N  0.00045387  0.80323370  0.22814465    -0.34600
N404        N  0.01390178  0.80298837  0.25775614    -0.28800
C405        C  0.01958861  0.82678869  0.26674212    -0.04900
C406        C  0.00946844  0.84264030  0.24134423     0.07300
C407        C  0.99728132  0.82713302  0.21747089     0.01100
H408        H  0.02970126  0.83219475  0.29052202     0.08700
H409        H  0.98613112  0.83283984  0.19481102     0.07800
N410        N  0.02557310  0.73608539  0.31216384    -0.36000
N411        N  0.01447023  0.71527152  0.30135028    -0.28200
C412        C  0.02102307  0.69631507  0.32323902    -0.03400
C413        C  0.03676524  0.70570746  0.34947479     0.05200
C414        C  0.03941340  0.73093045  0.34122587     0.03300
H415        H  0.01574290  0.67697838  0.31906889     0.08400
H416        H  0.05101286  0.74446126  0.35500176     0.07200
N417        N  0.28850496  0.97587088  0.20176150    -0.27200
N418        N  0.26766196  0.96954775  0.18495008    -0.35000
C419        C  0.27351575  0.95384972  0.15801290     0.01200
C420        C  0.29922672  0.94996581  0.15826160     0.07200
C421        C  0.30812077  0.96450146  0.18598911    -0.05900
H422        H  0.26012490  0.94634104  0.13919272     0.07800
H423        H  0.32747301  0.96665430  0.19412051     0.09000
Cu424      Cu  0.23240300  0.98275236  0.19994724     0.44200
Cu425      Cu  0.28949659  0.99899047  0.24605631     0.42000
Cu426      Cu  0.23044228  0.01906999  0.28308819     0.43900
N427        N  0.19964083  0.99710405  0.22243415    -0.34600
N428        N  0.19885730  0.00982735  0.25275833    -0.28800
C429        C  0.17473833  0.01496994  0.26065028    -0.04900
C430        C  0.15966011  0.00541201  0.23385266     0.07300
C431        C  0.17607900  0.99397087  0.21027845     0.01100
H432        H  0.16854298  0.02451243  0.28457913     0.08700
H433        H  0.17123576  0.98313437  0.18689078     0.07800
N434        N  0.26509631  0.02689613  0.30671889    -0.36000
N435        N  0.28666685  0.01961373  0.29263728    -0.28200
C436        C  0.30565008  0.02769713  0.31324050    -0.03400
C437        C  0.29564272  0.04089406  0.34158147     0.05200
C438        C  0.26986115  0.03992115  0.33679607     0.03300
H439        H  0.32531940  0.02453857  0.30767583     0.08400
H440        H  0.25566093  0.04821964  0.35373498     0.07200
O441        O  0.16131026  0.37677383  0.96750302    -0.72800
O442        O  0.11968426  0.34062920  0.04068649    -0.73800
O443        O  0.12224629  0.34019059  0.96489794    -0.62400
O444        O  0.15885199  0.37744272  0.04321233    -0.70900
O445        O  0.13049066  0.40777182  0.04056827    -0.70400
O446        O  0.09349171  0.37027700  0.96398020    -0.61700
O447        O  0.09161845  0.37111206  0.03942813    -0.74200
O448        O  0.13244284  0.40672045  0.96541872    -0.72900
Cu449      Cu  0.14152127  0.35767768  0.00419143     1.04600
Cu450      Cu  0.11105653  0.38998487  0.00227699     1.04300
C451        C  0.15345767  0.39772738  0.95517779     0.93400
C452        C  0.09897922  0.34994197  0.05167595     0.92500
C453        C  0.10176622  0.34923882  0.95253459     0.84600
C454        C  0.15064906  0.39874916  0.05389720     0.90900
O455        O  0.63485053  0.09864448  0.95974715    -0.72800
O456        O  0.59591631  0.13454309  0.03535588    -0.73800
O457        O  0.59669115  0.13571982  0.96062480    -0.62400
O458        O  0.63415466  0.09732644  0.03489800    -0.70900
O459        O  0.66297695  0.12728712  0.03711878    -0.70400
O460        O  0.62533161  0.16553744  0.96133362    -0.61700
O461        O  0.62460130  0.16459316  0.03683912    -0.74200
O462        O  0.66387218  0.12826675  0.96120093    -0.72900
Cu463      Cu  0.61445244  0.11554426  0.99762474     1.04600
Cu464      Cu  0.64525653  0.14747460  0.99919006     1.04300
C465        C  0.65551394  0.10771117  0.94835909     0.93400
C466        C  0.60377817  0.15546186  0.04751308     0.92500
C467        C  0.60469235  0.15684980  0.94930728     0.84600
C468        C  0.65455563  0.10607521  0.04753067     0.90900
O469        O  0.89741735  0.63469291  0.04314878    -0.72800
O470        O  0.86027098  0.59642017  0.96744435    -0.73800
O471        O  0.89822067  0.63340405  0.96776620    -0.62400
O472        O  0.85964557  0.59728814  0.04340245    -0.70900
O473        O  0.83083626  0.62732669  0.04277803    -0.70400
O474        O  0.86960560  0.66339389  0.96646490    -0.61700
O475        O  0.83146793  0.62640204  0.96668304    -0.74200
O476        O  0.86876439  0.66461934  0.04184366    -0.72900
Cu477      Cu  0.87984595  0.61439291  0.00552660     1.04600
Cu478      Cu  0.84910066  0.64640690  0.00441034     1.04300
C479        C  0.88923611  0.65591012  0.05433389     0.93400
C480        C  0.84015163  0.60577532  0.95442922     0.92500
C481        C  0.89031218  0.65416144  0.95512760     0.84600
C482        C  0.83935919  0.60679195  0.05559201     0.90900
O483        O  0.34937343  0.87638540  0.04059457    -0.72800
O484        O  0.38526357  0.83845197  0.96339521    -0.73800
O485        O  0.38681942  0.83830633  0.03860912    -0.62400
O486        O  0.34774364  0.87641561  0.96487203    -0.70900
O487        O  0.37691684  0.90565351  0.96393082    -0.70400
O488        O  0.41692469  0.86687393  0.03645644    -0.61700
O489        O  0.41445206  0.86779046  0.96114301    -0.74200
O490        O  0.37930631  0.90496327  0.03988178    -0.72900
Cu491      Cu  0.36629206  0.85639640  0.00193279     1.04600
Cu492      Cu  0.39791065  0.88735223  0.00036289     1.04300
C493        C  0.35860377  0.89687986  0.05249889     0.93400
C494        C  0.40538272  0.84709832  0.94974725     0.92500
C495        C  0.40822889  0.84631633  0.04874204     0.84600
C496        C  0.35603889  0.89716141  0.95248313     0.90900
O497        O  0.08760450  0.62988997  0.54354540    -0.72800
O498        O  0.12721061  0.59553762  0.46674599    -0.73800
O499        O  0.12709098  0.59393281  0.54285091    -0.62400
O500        O  0.08779608  0.63181994  0.46786683    -0.70900
O501        O  0.11580310  0.66229999  0.46997383    -0.70400
O502        O  0.15534033  0.62408209  0.54353560    -0.61700
O503        O  0.15512708  0.62597387  0.46762070    -0.74200
O504        O  0.11603468  0.66012386  0.54573752    -0.72900
Cu505      Cu  0.10648105  0.61172131  0.50518149     1.04600
Cu506      Cu  0.13654039  0.64415593  0.50675705     1.04300
C507        C  0.09565327  0.65037898  0.55696457     0.93400
C508        C  0.14744607  0.60519403  0.45468665     0.92500
C509        C  0.14743844  0.60311515  0.55543384     0.84600
C510        C  0.09565171  0.65316799  0.45698670     0.90900
O511        O  0.41192234  0.12047076  0.46173217    -0.72800
O512        O  0.37427902  0.08601298  0.54034647    -0.73800
O513        O  0.37394599  0.08266321  0.46448755    -0.62400
O514        O  0.41167961  0.12407528  0.53757838    -0.70900
O515        O  0.38224294  0.15332329  0.53471153    -0.70400
O516        O  0.34467717  0.11217465  0.46271473    -0.61700
O517        O  0.34495910  0.11554157  0.53840362    -0.74200
O518        O  0.38232261  0.14966864  0.45913165    -0.72900
Cu519      Cu  0.39399571  0.10226563  0.50111677     1.04600
Cu520      Cu  0.36254419  0.13365124  0.49863447     1.04300
C521        C  0.40302344  0.14049928  0.44785417     0.93400
C522        C  0.35382346  0.09545116  0.55209806     0.92500
C523        C  0.35319810  0.09100405  0.45203943     0.84600
C524        C  0.40292250  0.14530834  0.54770172     0.90900
O525        O  0.83918467  0.37595956  0.46610381    -0.72800
O526        O  0.87783843  0.33870906  0.54217706    -0.73800
O527        O  0.83979110  0.37607403  0.54249969    -0.62400
O528        O  0.87714531  0.33856072  0.46647856    -0.70900
O529        O  0.90607682  0.36806342  0.46502155    -0.70400
O530        O  0.86892187  0.40566368  0.54187914    -0.61700
O531        O  0.90702873  0.36815320  0.54083963    -0.74200
O532        O  0.86815755  0.40566180  0.46576796    -0.72900
Cu533      Cu  0.85746016  0.35633806  0.50433566     1.04600
Cu534      Cu  0.88853140  0.38792871  0.50337532     1.04300
C535        C  0.84773890  0.39653022  0.45353189     0.93400
C536        C  0.89874695  0.34746577  0.55328569     0.92500
C537        C  0.84868130  0.39656812  0.55476134     0.84600
C538        C  0.89749330  0.34725807  0.45341127     0.90900
O539        O  0.63839703  0.90534691  0.53691308    -0.72800
O540        O  0.60074193  0.86844001  0.46018304    -0.73800
O541        O  0.60227853  0.86676151  0.53546540    -0.62400
O542        O  0.63681169  0.90770330  0.46150829    -0.70900
O543        O  0.66733294  0.87941415  0.45936258    -0.70400
O544        O  0.63211957  0.83803505  0.53361222    -0.61700
O545        O  0.63116447  0.84038365  0.45810712    -0.74200
O546        O  0.66857474  0.87676304  0.53506589    -0.72900
Cu547      Cu  0.61853426  0.88804339  0.49860618     1.04600
Cu548      Cu  0.65087947  0.85768480  0.49640016     1.04300
C549        C  0.65931739  0.89678121  0.54843112     0.93400
C550        C  0.60992992  0.84821359  0.44705184     0.92500
C551        C  0.61142081  0.84599192  0.54652492     0.84600
C552        C  0.65751936  0.89992616  0.44843225     0.90900
C553        C  0.32637894  0.09138983  0.39823989    -0.05700
C554        C  0.33898761  0.07699662  0.42409971     0.00200
C555        C  0.33701952  0.05036671  0.42277528    -0.08300
C556        C  0.32243502  0.03931837  0.39554590    -0.05700
C557        C  0.30988430  0.05388289  0.37000687     0.00200
C558        C  0.31217132  0.08029475  0.37088398    -0.08200
C559        C  0.30042313  0.09661104  0.34220888     0.62100
H560        H  0.32805208  0.11162381  0.39928274     0.12800
H561        H  0.32067715  0.01909409  0.39389812     0.12900
C562        C  0.34949929  0.03360967  0.45031082     0.62400
F563        F  0.30598571  0.12176847  0.34695684    -0.22800
F564        F  0.27464035  0.09407120  0.34280814    -0.20100
F565        F  0.30938639  0.08936824  0.30914715    -0.19800
F566        F  0.34230950  0.04096847  0.48417245    -0.19800
F567        F  0.37528263  0.03519642  0.44718082    -0.20200
F568        F  0.34289602  0.00865522  0.44601916    -0.22800
C569        C  0.33200747  0.94921108  0.11203043    -0.05700
C570        C  0.31456172  0.93578023  0.13224625     0.00200
C571        C  0.31290804  0.90944801  0.12829596    -0.08300
C572        C  0.32789732  0.89757439  0.10234141    -0.05700
C573        C  0.34488285  0.91105301  0.08092013     0.00200
C574        C  0.34738153  0.93741565  0.08647276    -0.08200
C575        C  0.36560910  0.95341522  0.06533126     0.62100
H576        H  0.33329367  0.96927702  0.11634935     0.12800
H577        H  0.32644631  0.87746421  0.09869472     0.12900
C578        C  0.29608744  0.89389075  0.15226502     0.62400
F579        F  0.36336387  0.97869819  0.07339233    -0.22800
F580        F  0.36095349  0.95063501  0.02936988    -0.20100
F581        F  0.38998298  0.94623243  0.07290726    -0.19800
F582        F  0.27123106  0.89969401  0.14583284    -0.19800
F583        F  0.30162655  0.89887991  0.18758405    -0.20200
F584        F  0.29930811  0.86839078  0.14660822    -0.22800
C585        C  0.07703845  0.69545997  0.37854373    -0.05700
C586        C  0.05104956  0.69166532  0.37713178     0.00200
C587        C  0.03961565  0.67571914  0.40261248    -0.08300
C588        C  0.05487940  0.66381975  0.42829705    -0.05700
C589        C  0.08103298  0.66731088  0.42947152     0.00200
C590        C  0.09235373  0.68346316  0.40394220    -0.08200
C591        C  0.12052522  0.68741629  0.40220488     0.62100
H592        H  0.08537424  0.70784322  0.35900351     0.12800
H593        H  0.04637553  0.65152338  0.44779655     0.12900
C594        C  0.01146109  0.67145978  0.40328717     0.62400
F595        F  0.12755803  0.70109565  0.37249800    -0.22800
F596        F  0.13248103  0.66440259  0.40038376    -0.20100
F597        F  0.12854542  0.70040757  0.43200081    -0.19800
F598        F  0.00459959  0.65658863  0.37475723    -0.19800
F599        F  0.99885778  0.69416065  0.40147825    -0.20200
F600        F  0.00392262  0.65946613  0.43419058    -0.22800
C601        C  0.91152353  0.70409116  0.12402457    -0.05700
C602        C  0.93491919  0.69391284  0.13315114     0.00200
C603        C  0.94366823  0.67217823  0.11532587    -0.08300
C604        C  0.92792853  0.66054756  0.09031191    -0.05700
C605        C  0.90408699  0.67018446  0.08148871     0.00200
C606        C  0.89586352  0.69285607  0.09828697    -0.08200
C607        C  0.87104504  0.70560973  0.08940694     0.62100
H608        H  0.90560222  0.72110233  0.13750827     0.12800
H609        H  0.93447349  0.64365012  0.07719413     0.12900
C610        C  0.96988910  0.66174543  0.12140382     0.62400
F611        F  0.86717491  0.72712255  0.10945934    -0.22800
F612        F  0.85131556  0.68955356  0.09628584    -0.20100
F613        F  0.87079189  0.71256027  0.05390522    -0.19800
F614        F  0.97135587  0.65082293  0.15467473    -0.19800
F615        F  0.98736663  0.68081334  0.11889571    -0.20200
F616        F  0.97615848  0.64362854  0.09641824    -0.22800
C617        C  0.69303662  0.91935407  0.36493382    -0.05700
C618        C  0.69315509  0.94550263  0.36876076     0.00200
C619        C  0.68098673  0.95682780  0.39816563    -0.08300
C620        C  0.66972656  0.94124643  0.42382058    -0.05700
C621        C  0.67003854  0.91494218  0.42046350     0.00200
C622        C  0.68117608  0.90377803  0.38996281    -0.08200
C623        C  0.67984219  0.87570697  0.38304079     0.62100
H624        H  0.70228369  0.91122111  0.34193427     0.12800
H625        H  0.66069693  0.94950907  0.44689472     0.12900
C626        C  0.68025273  0.98516642  0.40253748     0.62400
F627        F  0.68732458  0.86970676  0.34873920    -0.22800
F628        F  0.65544033  0.86740568  0.38723862    -0.20100
F629        F  0.69537857  0.86313850  0.40654136    -0.19800
F630        F  0.66720797  0.99578316  0.37449262    -0.19800
F631        F  0.70441535  0.99455805  0.40297198    -0.20200
F632        F  0.66851659  0.99230793  0.43388262    -0.22800
C633        C  0.68994756  0.05367495  0.09423580    -0.05700
C634        C  0.69320838  0.06409401  0.12819365     0.00200
C635        C  0.68493812  0.08888640  0.13521281    -0.08300
C636        C  0.67260653  0.10223260  0.10797222    -0.05700
C637        C  0.66847371  0.09142377  0.07439274     0.00200
C638        C  0.67769043  0.06699220  0.06698657    -0.08200
C639        C  0.67532838  0.05542765  0.03014023     0.62100
H640        H  0.69697433  0.03487616  0.08933518     0.12800
H641        H  0.66573971  0.12109499  0.11282834     0.12900
C642        C  0.68963171  0.10125158  0.17103779     0.62400
F643        F  0.68849264  0.03306513  0.02740373    -0.22800
F644        F  0.68481691  0.07179441  0.00496475    -0.20100
F645        F  0.65041558  0.05059686  0.02267403    -0.19800
F646        F  0.71497232  0.10041856  0.17891503    -0.19800
F647        F  0.67646020  0.08876977  0.19729738    -0.20200
F648        F  0.68212546  0.12615676  0.17126373    -0.22800
C649        C  0.12026319  0.99100639  0.26160589    -0.05700
C650        C  0.13187554  0.00419023  0.23387979     0.00200
C651        C  0.11692726  0.01619033  0.20774109    -0.08300
C652        C  0.09060303  0.01508717  0.21093537    -0.05700
C653        C  0.07886420  0.00207295  0.23892986     0.00200
C654        C  0.09397776  0.98921281  0.26426798    -0.08200
C655        C  0.08266965  0.97279166  0.29316796     0.62100
H656        H  0.13211193  0.98182649  0.28111948     0.12800
H657        H  0.07891075  0.02450671  0.19147183     0.12900
C658        C  0.12869862  0.03035528  0.17692745     0.62400
F659        F  0.10077861  0.95876210  0.31062379    -0.22800
F660        F  0.06569835  0.95620826  0.27824430    -0.20100
F661        F  0.07066969  0.98758618  0.31824780    -0.19800
F662        F  0.14141488  0.01374464  0.15507124    -0.19800
F663        F  0.14528746  0.04812107  0.18975225    -0.20200
F664        F  0.11086970  0.04262193  0.15647246    -0.22800
C665        C  0.99250853  0.88194865  0.26680774    -0.05700
C666        C  0.00860667  0.87033326  0.24224628     0.00200
C667        C  0.02296333  0.88512195  0.21863770    -0.08300
C668        C  0.02072186  0.91140002  0.22042815    -0.05700
C669        C  0.00450911  0.92316505  0.24482663     0.00200
C670        C  0.98991185  0.90825583  0.26830298    -0.08200
C671        C  0.97090560  0.91984013  0.29369374     0.62100
H672        H  0.98164803  0.87013016  0.28445830     0.12800
H673        H  0.03169073  0.92304324  0.20267924     0.12900
C674        C  0.04067269  0.87311166  0.19190143     0.62400
F675        F  0.95616645  0.90177793  0.30988038    -0.22800
F676        F  0.95514773  0.93590817  0.27524384    -0.20100
F677        F  0.98317200  0.93302218  0.32019467    -0.19800
F678        F  0.02717440  0.85862988  0.16812822    -0.19800
F679        F  0.05781050  0.85805380  0.20952896    -0.20200
F680        F  0.05385100  0.89087654  0.17263079    -0.22800
C681        C  0.91150090  0.98383309  0.21846053    -0.05700
C682        C  0.92374112  0.99927416  0.24335206     0.00200
C683        C  0.90921862  0.01460548  0.26660159    -0.08300
C684        C  0.88287347  0.01356610  0.26426768    -0.05700
C685        C  0.87082320  0.99801654  0.23953485     0.00200
C686        C  0.88518224  0.98281753  0.21629125    -0.08200
C687        C  0.87266507  0.96521815  0.18992516     0.62100
H688        H  0.92279107  0.97230068  0.20084683     0.12800
H689        H  0.87136307  0.02485036  0.28193024     0.12900
C690        C  0.92123715  0.03223141  0.29346649     0.62400
F691        F  0.88996791  0.95048434  0.17194499    -0.22800
F692        F  0.85941364  0.97899934  0.16502548    -0.20100
F693        F  0.85636803  0.94942469  0.20773051    -0.19800
F694        F  0.93911870  0.04696121  0.27695605    -0.19800
F695        F  0.93238074  0.01839177  0.32031340    -0.20200
F696        F  0.90378451  0.04816677  0.30895089    -0.22800
C697        C  0.89760916  0.31213204  0.40992919    -0.05700
C698        C  0.91043409  0.33295449  0.42429938     0.00200
C699        C  0.93439518  0.33929998  0.40998121    -0.08300
C700        C  0.94427578  0.32446247  0.38223421    -0.05700
C701        C  0.93126086  0.30396151  0.36801390     0.00200
C702        C  0.90736938  0.29771091  0.38173974    -0.08200
C703        C  0.89151348  0.27690170  0.36560472     0.62100
H704        H  0.87935211  0.30736214  0.42048468     0.12800
H705        H  0.96244643  0.32887267  0.37098092     0.12900
C706        C  0.94971564  0.36155438  0.42300349     0.62400
F707        F  0.86785431  0.27581953  0.38078379    -0.22800
F708        F  0.90286274  0.25388753  0.37088053    -0.20100
F709        F  0.88856777  0.28103884  0.32947347    -0.19800
F710        F  0.95442813  0.35928498  0.45903599    -0.19800
F711        F  0.93683820  0.38363969  0.41644311    -0.20200
F712        F  0.97269224  0.36318435  0.40592764    -0.22800
C713        C  0.05825770  0.34535187  0.08342846    -0.05700
C714        C  0.08289288  0.33632603  0.07815195     0.00200
C715        C  0.09088368  0.31484028  0.09781636    -0.08300
C716        C  0.07411757  0.30389454  0.12227944    -0.05700
C717        C  0.04968062  0.31303038  0.12739156     0.00200
C718        C  0.04138184  0.33393869  0.10727513    -0.08200
C719        C  0.01467503  0.34386273  0.10983528     0.62100
H720        H  0.05201539  0.36148891  0.06833125     0.12800
H721        H  0.07991361  0.28769631  0.13762459     0.12900
C722        C  0.11664661  0.30291745  0.09316919     0.62400
F723        F  0.00918016  0.36043625  0.08251349    -0.22800
F724        F  0.01146371  0.35646560  0.14169906    -0.20100
F725        F  0.99774445  0.32427922  0.10773101    -0.19800
F726        F  0.13515304  0.32039744  0.09986847    -0.19800
F727        F  0.11907315  0.29374948  0.05883447    -0.20200
F728        F  0.12045682  0.28302790  0.11628600    -0.22800
C729        C  0.01421254  0.09006329  0.26445651    -0.05700
C730        C  0.99914222  0.07782616  0.23916091     0.00200
C731        C  0.98407266  0.09229115  0.21563268    -0.08300
C732        C  0.98507500  0.11864564  0.21807524    -0.05700
C733        C  0.00012711  0.13071152  0.24342727     0.00200
C734        C  0.01504251  0.11634794  0.26700156    -0.08200
C735        C  0.03231198  0.12867792  0.29399016     0.62100
H736        H  0.02560635  0.07875789  0.28217834     0.12800
H737        H  0.97387755  0.13015345  0.20035405     0.12900
C738        C  0.96646890  0.08022061  0.18882625     0.62400
F739        F  0.04657789  0.11119154  0.31233831    -0.22800
F740        F  0.01835820  0.14200254  0.31864630    -0.20100
F741        F  0.04852298  0.14483293  0.27671713    -0.19800
F742        F  0.95134404  0.06282891  0.20566624    -0.19800
F743        F  0.98023332  0.06844314  0.16240719    -0.20200
F744        F  0.95097111  0.09776321  0.17271887    -0.22800
C745        C  0.69879325  0.91414616  0.63001434    -0.05700
C746        C  0.69559032  0.94027496  0.63051732     0.00200
C747        C  0.68136191  0.95204971  0.60343578    -0.08300
C748        C  0.67012337  0.93700688  0.57716900    -0.05700
C749        C  0.67285333  0.91076164  0.57682290     0.00200
C750        C  0.68755593  0.89899897  0.60372094    -0.08200
C751        C  0.69081419  0.87068311  0.60571984     0.62100
H752        H  0.71010608  0.90567600  0.65075573     0.12800
H753        H  0.65910340  0.94576719  0.55636951     0.12900
C754        C  0.67864234  0.98039892  0.60149089     0.62400
F755        F  0.70336321  0.86336591  0.63632210    -0.22800
F756        F  0.70457454  0.86224999  0.57682929    -0.20100
F757        F  0.66755371  0.85927821  0.60591813    -0.19800
F758        F  0.70207011  0.99148053  0.60228916    -0.19800
F759        F  0.66458150  0.98893979  0.62996161    -0.20200
F760        F  0.66675063  0.98796032  0.57049216    -0.22800
C761        C  0.69589239  0.09004925  0.86779058    -0.05700
C762        C  0.69410547  0.06380086  0.86870624     0.00200
C763        C  0.68063935  0.05207614  0.89654477    -0.08300
C764        C  0.66840420  0.06725993  0.92181354    -0.05700
C765        C  0.66980667  0.09360235  0.92081194     0.00200
C766        C  0.68400603  0.10532130  0.89344992    -0.08200
C767        C  0.68626618  0.13368325  0.89059546     0.62100
H768        H  0.70670972  0.09849771  0.84654430     0.12800
H769        H  0.65777326  0.05853313  0.94304324     0.12900
C770        C  0.68000151  0.02371169  0.90043453     0.62400
F771        F  0.69853504  0.14086805  0.85973640    -0.22800
F772        F  0.69980568  0.14285137  0.91918909    -0.20100
F773        F  0.66265355  0.14453210  0.89023908    -0.19800
F774        F  0.70423415  0.01439239  0.90149971    -0.19800
F775        F  0.66740926  0.01315803  0.87198839    -0.20200
F776        F  0.66795122  0.01639435  0.93141895    -0.22800
C777        C  0.95157839  0.31941549  0.60988054    -0.05700
C778        C  0.93779539  0.30763787  0.63678174     0.00200
C779        C  0.91131404  0.30838910  0.63597261    -0.08300
C780        C  0.89934199  0.32140395  0.60810055    -0.05700
C781        C  0.91303937  0.33373910  0.58131748     0.00200
C782        C  0.93969364  0.33221941  0.58172451    -0.08200
C783        C  0.95558430  0.34269125  0.55169394     0.62100
H784        H  0.97185413  0.31818948  0.61092924     0.12800
H785        H  0.87906913  0.32213093  0.60717357     0.12900
C786        C  0.89590561  0.29573457  0.66478264     0.62400
F787        F  0.98042758  0.33527014  0.55441909    -0.22800
F788        F  0.95491217  0.36863258  0.55228975    -0.20100
F789        F  0.94653676  0.33401872  0.51944509    -0.19800
F790        F  0.90243928  0.30533581  0.69775339    -0.19800
F791        F  0.90043265  0.27016487  0.66441007    -0.20200
F792        F  0.87042794  0.29951335  0.65995939    -0.22800
C793        C  0.10094281  0.32436965  0.89642538    -0.05700
C794        C  0.08754071  0.33516232  0.92489973     0.00200
C795        C  0.06111236  0.33184506  0.92672189    -0.08300
C796        C  0.04913121  0.31766554  0.90002662    -0.05700
C797        C  0.06252780  0.30709647  0.87163491     0.00200
C798        C  0.08874748  0.31072268  0.86928091    -0.08200
C799        C  0.10348457  0.30088983  0.83757257     0.62100
H800        H  0.12103861  0.32718297  0.89521673     0.12800
H801        H  0.02901858  0.31488412  0.90086129     0.12900
C802        C  0.04549944  0.34292296  0.95677603     0.62400
F803        F  0.12858641  0.30734728  0.83947857    -0.22800
F804        F  0.09373227  0.31087907  0.80648971    -0.20100
F805        F  0.10188895  0.27500897  0.83615690    -0.19800
F806        F  0.04478828  0.36877371  0.95360222    -0.19800
F807        F  0.05575169  0.33645384  0.98936218    -0.20200
F808        F  0.02103458  0.33427296  0.95610744    -0.22800
C809        C  0.31656429  0.08151119  0.63668507    -0.05700
C810        C  0.31516781  0.05524888  0.63503943     0.00200
C811        C  0.32636009  0.04228547  0.60615870    -0.08300
C812        C  0.33905402  0.05620121  0.57996811    -0.05700
C813        C  0.34024500  0.08252403  0.58125352     0.00200
C814        C  0.32901675  0.09550877  0.61025086    -0.08200
C815        C  0.33051745  0.12388550  0.61381952     0.62100
H816        H  0.30763801  0.09099033  0.65888417     0.12800
H817        H  0.34776977  0.04659633  0.55772909     0.12900
C818        C  0.32396148  0.01401872  0.60214072     0.62400
F819        F  0.32186614  0.13208388  0.64663213    -0.22800
F820        F  0.31600542  0.13510927  0.58776464    -0.20100
F821        F  0.35514061  0.13165568  0.61033882    -0.19800
F822        F  0.29889687  0.00737355  0.60265538    -0.19800
F823        F  0.33631166  0.00207140  0.62970091    -0.20200
F824        F  0.33418935  0.00553417  0.57039975    -0.22800
C825        C  0.33200199  0.94594295  0.88473068    -0.05700
C826        C  0.31044514  0.93400860  0.87180991     0.00200
C827        C  0.30403297  0.90998965  0.88508290    -0.08300
C828        C  0.31952500  0.89892188  0.91112769    -0.05700
C829        C  0.34114882  0.91088008  0.92457231     0.00200
C830        C  0.34744905  0.93509388  0.91101807    -0.08200
C831        C  0.37002631  0.94994287  0.92390291     0.62100
H832        H  0.33653605  0.96424976  0.87405418     0.12800
H833        H  0.31450951  0.88064333  0.92141289     0.12900
C834        C  0.28104162  0.89582746  0.87216670     0.62400
F835        F  0.37155533  0.97333073  0.90797876    -0.22800
F836        F  0.39189625  0.93707228  0.91598990    -0.20100
F837        F  0.36828137  0.95382214  0.96018554    -0.19800
F838        F  0.27912340  0.89704684  0.83545310    -0.19800
F839        F  0.25979440  0.90610704  0.88749613    -0.20200
F840        F  0.28206581  0.87069072  0.88144605    -0.22800
C841        C  0.91393143  0.00078604  0.77632484    -0.05700
C842        C  0.92577080  0.00120364  0.74270152     0.00200
C843        C  0.91039344  0.00240134  0.71162060    -0.08300
C844        C  0.88408811  0.00293922  0.71578172    -0.05700
C845        C  0.87256296  0.00277344  0.74939172     0.00200
C846        C  0.88770813  0.00149126  0.78033843    -0.08200
C847        C  0.87655141  0.00020282  0.81759986     0.62100
H848        H  0.92544139  0.00001817  0.80002696     0.12800
H849        H  0.87208266  0.00374426  0.69253995     0.12900
C850        C  0.92115528  0.00334356  0.67411194     0.62400
F851        F  0.89443078  0.99412319  0.84294226    -0.22800
F852        F  0.85804687  0.98207583  0.81896746    -0.20100
F853        F  0.86654097  0.02324690  0.82680414    -0.19800
F854        F  0.93511424  0.98192137  0.66743256    -0.19800
F855        F  0.93606752  0.02439360  0.67043127    -0.20200
F856        F  0.90257417  0.00468115  0.64838896    -0.22800
C857        C  0.01823530  0.08858831  0.71802033    -0.05700
C858        C  0.00505297  0.07633614  0.74537509     0.00200
C859        C  0.99226591  0.09087284  0.77152482    -0.08300
C860        C  0.99389104  0.11717861  0.76981009    -0.05700
C861        C  0.00715629  0.12926561  0.74262596     0.00200
C862        C  0.01946207  0.11492258  0.71608602    -0.08200
C863        C  0.03433597  0.12732761  0.68645415     0.62100
H864        H  0.02782015  0.07729945  0.69820011     0.12800
H865        H  0.98460590  0.12867180  0.78969439     0.12900
C866        C  0.97635199  0.07899295  0.80057003     0.62400
F867        F  0.04623376  0.10985880  0.66487933    -0.22800
F868        F  0.05246576  0.14279495  0.70096031    -0.20100
F869        F  0.01849439  0.14141902  0.66524299    -0.19800
F870        F  0.99162166  0.06676209  0.82478768    -0.19800
F871        F  0.95967858  0.06209392  0.78568267    -0.20200
F872        F  0.96246956  0.09672820  0.81908435    -0.22800
C873        C  0.09212051  0.01881848  0.76707561    -0.05700
C874        C  0.08109557  0.99886633  0.74831154     0.00200
C875        C  0.09654766  0.98016980  0.73270249    -0.08300
C876        C  0.12278681  0.98261580  0.73541421    -0.05700
C877        C  0.13372808  0.00293760  0.75332592     0.00200
C878        C  0.11833213  0.02123174  0.76975277    -0.08200
C879        C  0.12968321  0.04318217  0.78982953     0.62100
H880        H  0.07996545  0.03276392  0.77917921     0.12800
H881        H  0.13503803  0.96862550  0.72362757     0.12900
C882        C  0.08536252  0.95729465  0.71461361     0.62400
F883        F  0.11150143  0.05790727  0.80599968    -0.22800
F884        F  0.14303715  0.05806904  0.76641921    -0.20100
F885        F  0.14568485  0.03444182  0.81607012    -0.19800
F886        F  0.07233509  0.96451034  0.68447264    -0.19800
F887        F  0.06918184  0.94529695  0.73781510    -0.20200
F888        F  0.10366003  0.94023642  0.70441770    -0.22800
C889        C  0.05458376  0.66523644  0.57869641    -0.05700
C890        C  0.08053228  0.66322443  0.58459721     0.00200
C891        C  0.09102992  0.67309506  0.61641203    -0.08300
C892        C  0.07515479  0.68559443  0.64057099    -0.05700
C893        C  0.04938364  0.68784981  0.63423981     0.00200
C894        C  0.03875083  0.67752036  0.60308870    -0.08200
C895        C  0.01093108  0.68013135  0.59540368     0.62100
H896        H  0.04685775  0.65748701  0.55437084     0.12800
H897        H  0.08268999  0.69363386  0.66483282     0.12900
C898        C  0.11843614  0.66926548  0.62588028     0.62400
F899        F  0.00434159  0.66879017  0.56355440    -0.22800
F900        F  0.00461382  0.70529545  0.59337493    -0.20100
F901        F  0.99723429  0.66901582  0.62237013    -0.19800
F902        F  0.13356446  0.68193163  0.60205326    -0.19800
F903        F  0.12397489  0.64389075  0.62495395    -0.20200
F904        F  0.12393951  0.67806427  0.65972105    -0.22800
C905        C  0.94219447  0.67663779  0.89182356    -0.05700
C906        C  0.92961506  0.69574570  0.87348590     0.00200
C907        C  0.90416924  0.70086599  0.88130181    -0.08300
C908        C  0.89226847  0.68679482  0.90806028    -0.05700
C909        C  0.90481100  0.66768769  0.92700192     0.00200
C910        C  0.93042683  0.66245056  0.91862173    -0.08200
C911        C  0.94571600  0.64233636  0.93760016     0.62100
H912        H  0.96158010  0.67297436  0.88484143     0.12800
H913        H  0.87280045  0.69066154  0.91421061     0.12900
C914        C  0.88936556  0.72053924  0.86083106     0.62400
F915        F  0.97048282  0.64196099  0.92644932    -0.22800
F916        F  0.93574730  0.61889849  0.93057330    -0.20100
F917        F  0.94568092  0.64680627  0.97392708    -0.19800
F918        F  0.89199291  0.71662420  0.82456987    -0.19800
F919        F  0.89798953  0.74421702  0.86940871    -0.20200
F920        F  0.86402079  0.71968374  0.86879816    -0.22800
C921        C  0.98716498  0.88097002  0.72355713    -0.05700
C922        C  0.00104813  0.86906972  0.75038502     0.00200
C923        C  0.01571371  0.88345435  0.77414395    -0.08300
C924        C  0.01611224  0.90962602  0.77002080    -0.05700
C925        C  0.00188378  0.92174209  0.74363680     0.00200
C926        C  0.98678455  0.90727494  0.72019501    -0.08200
C927        C  0.96931581  0.91937458  0.69317460     0.62100
H928        H  0.97611139  0.86941313  0.70574732     0.12800
H929        H  0.02735074  0.92096057  0.78787570     0.12900
C930        C  0.03070554  0.87126494  0.80386305     0.62400
F931        F  0.95390867  0.90187989  0.67690876    -0.22800
F932        F  0.98311024  0.93109732  0.66685353    -0.20100
F933        F  0.95410288  0.93681590  0.71002502    -0.19800
F934        F  0.04579226  0.85238935  0.79023019    -0.19800
F935        F  0.01447011  0.86121243  0.82872450    -0.20200
F936        F  0.04599881  0.88836632  0.82112974    -0.22800
C937        C  0.80337580  0.59113038  0.86944291    -0.05700
C938        C  0.80403440  0.56487225  0.86956296     0.00200
C939        C  0.81592139  0.55200632  0.89785655    -0.08300
C940        C  0.82766126  0.56610874  0.92481375    -0.05700
C941        C  0.82701102  0.59250735  0.92497764     0.00200
C942        C  0.81454003  0.60534426  0.89679249    -0.08200
C943        C  0.81313837  0.63383204  0.89500216     0.62100
H944        H  0.79380424  0.60041911  0.84765394     0.12800
H945        H  0.83698240  0.55653773  0.94656463     0.12900
C946        C  0.81507846  0.52357288  0.90038876     0.62400
F947        F  0.80280392  0.64208701  0.86325003    -0.22800
F948        F  0.83693733  0.64395515  0.89773275    -0.20100
F949        F  0.79823390  0.64278786  0.92240189    -0.19800
F950        F  0.82687880  0.51291444  0.87125956    -0.19800
F951        F  0.79035666  0.51576717  0.90130469    -0.20200
F952        F  0.82687700  0.51481788  0.93080922    -0.22800
C953        C  0.81308107  0.41191842  0.64043882    -0.05700
C954        C  0.81135416  0.43810762  0.63803982     0.00200
C955        C  0.82209530  0.45066442  0.60855233    -0.08300
C956        C  0.83395146  0.43633967  0.58186241    -0.05700
C957        C  0.83551195  0.41006547  0.58393878     0.00200
C958        C  0.82542431  0.39759098  0.61415277    -0.08200
C959        C  0.82844992  0.36948388  0.61946759     0.62100
H960        H  0.80470682  0.40276569  0.66328123     0.12800
H961        H  0.84209136  0.44560716  0.55895421     0.12900
C962        C  0.82083052  0.47903759  0.60511051     0.62400
F963        F  0.82153431  0.36215112  0.65345761    -0.22800
F964        F  0.85327662  0.36273467  0.61460775    -0.20100
F965        F  0.81360695  0.35667611  0.59537475    -0.19800
F966        F  0.83536467  0.48997316  0.63133667    -0.19800
F967        F  0.79629202  0.48719018  0.60862582    -0.20200
F968        F  0.82963871  0.48713753  0.57239760    -0.22800
C969        C  0.57867441  0.20653258  0.88467873    -0.05700
C970        C  0.55794885  0.19374253  0.87032471     0.00200
C971        C  0.55198856  0.16959183  0.88371479    -0.08300
C972        C  0.56846693  0.15824798  0.90804532    -0.05700
C973        C  0.58943892  0.17077977  0.92223928     0.00200
C974        C  0.59404925  0.19595627  0.91133931    -0.08200
C975        C  0.61432627  0.21215658  0.92812812     0.62100
H976        H  0.58275868  0.22516263  0.87483158     0.12800
H977        H  0.56454044  0.13925675  0.91657990     0.12900
C978        C  0.52793592  0.15579442  0.87437838     0.62400
F979        F  0.61366231  0.23659658  0.91559468    -0.22800
F980        F  0.63777460  0.20239255  0.92043794    -0.20100
F981        F  0.61087492  0.21314311  0.96465857    -0.19800
F982        F  0.53096632  0.14302692  0.84260466    -0.19800
F983        F  0.50798215  0.17235186  0.87184446    -0.20200
F984        F  0.52179036  0.13842730  0.90038206    -0.22800
C985        C  0.45289531  0.17541913  0.60773478    -0.05700
C986        C  0.43800369  0.19093757  0.62936541     0.00200
C987        C  0.41173103  0.19168423  0.62387668    -0.08300
C988        C  0.40126828  0.17650967  0.59695294    -0.05700
C989        C  0.41607386  0.16070752  0.57531253     0.00200
C990        C  0.44253067  0.16054661  0.58033982    -0.08200
C991        C  0.46001033  0.14551698  0.55643414     0.62100
H992        H  0.47294198  0.17518545  0.61244017     0.12800
H993        H  0.38116979  0.17671904  0.59285569     0.12900
C994        C  0.39466471  0.20776679  0.64702891     0.62400
F995        F  0.48496223  0.15113548  0.56276756    -0.22800
F996        F  0.45502938  0.15092085  0.52107779    -0.20100
F997        F  0.45678747  0.12013226  0.56246271    -0.19800
F998        F  0.39964789  0.23287827  0.64136579    -0.19800
F999        F  0.39852453  0.20211808  0.68257368    -0.20200
F1000       F  0.36956393  0.20381382  0.63945156    -0.22800
C1001       C  0.18428219  0.44939935  0.90048238    -0.05700
C1002       C  0.19514875  0.43532156  0.87298743     0.00200
C1003       C  0.19363139  0.40882618  0.87349888    -0.08300
C1004       C  0.18019821  0.39722245  0.90122294    -0.05700
C1005       C  0.16850990  0.41133710  0.92822140     0.00200
C1006       C  0.17135414  0.43785519  0.92867516    -0.08200
C1007       C  0.16200888  0.45386599  0.95951202     0.62100
H1008       H  0.18615225  0.46964186  0.89971521     0.12800
H1009       H  0.17822070  0.37699126  0.90156470     0.12900
C1010       C  0.20551404  0.39304016  0.84430418     0.62400
F1011       F  0.17041282  0.47838172  0.95712391    -0.22800
F1012       F  0.17074502  0.44401913  0.99126128    -0.20100
F1013       F  0.13609703  0.45448849  0.95989596    -0.19800
F1014       F  0.23116218  0.39677071  0.84393544    -0.19800
F1015       F  0.19564104  0.39986115  0.81163362    -0.20200
F1016       F  0.20121262  0.36765627  0.84923444    -0.22800
C1017       C  0.15450721  0.56412640  0.59079434    -0.05700
C1018       C  0.16161966  0.58913335  0.58385874     0.00200
C1019       C  0.18155309  0.59970272  0.60438277    -0.08300
C1020       C  0.19297850  0.58492856  0.63101191    -0.05700
C1021       C  0.18564551  0.56015786  0.63789085     0.00200
C1022       C  0.16631038  0.54932420  0.61705491    -0.08200
C1023       C  0.15855695  0.52205336  0.62138800     0.62100
H1024       H  0.13951333  0.55598087  0.57520232     0.12800
H1025       H  0.20805701  0.59264841  0.64691083     0.12900
C1026       C  0.19122806  0.62625374  0.59868298     0.62400
F1027       F  0.14353691  0.51405424  0.59352674    -0.22800
F1028       F  0.14510256  0.51921300  0.65256159    -0.20100
F1029       F  0.17952356  0.50669581  0.62218007    -0.19800
F1030       F  0.17194976  0.64337810  0.60274351    -0.19800
F1031       F  0.20140977  0.62832445  0.56492324    -0.20200
F1032       F  0.20974854  0.63262146  0.62290796    -0.22800
C1033       C  0.58879805  0.48817358  0.76881736    -0.05700
C1034       C  0.57617370  0.50100468  0.74141419     0.00200
C1035       C  0.59038521  0.51401948  0.71520263    -0.08300
C1036       C  0.61677490  0.51333509  0.71731903    -0.05700
C1037       C  0.62915532  0.50053426  0.74475253     0.00200
C1038       C  0.61513083  0.48767454  0.77089396    -0.08200
C1039       C  0.62805966  0.47321707  0.80051652     0.62100
H1040       H  0.57781157  0.47831682  0.78860459     0.12800
H1041       H  0.62805807  0.52299749  0.69766661     0.12900
C1042       C  0.57800253  0.52929974  0.68584088     0.62400
F1043       F  0.61105112  0.46103491  0.82230830    -0.22800
F1044       F  0.64185763  0.48951137  0.82140388    -0.20100
F1045       F  0.64393614  0.45535701  0.78596117    -0.19800
F1046       F  0.56102730  0.54608730  0.70051819    -0.19800
F1047       F  0.56573652  0.51350145  0.66238902    -0.20200
F1048       F  0.59532994  0.54297309  0.66646908    -0.22800
C1049       C  0.48048694  0.41179458  0.76624407    -0.05700
C1050       C  0.49864763  0.42372171  0.74520449     0.00200
C1051       C  0.51662753  0.40915108  0.72646185    -0.08300
C1052       C  0.51518609  0.38280707  0.72852224    -0.05700
C1053       C  0.49672324  0.37096688  0.74903328     0.00200
C1054       C  0.47917264  0.38549130  0.76841440    -0.08200
C1055       C  0.45907128  0.37311482  0.79093835     0.62100
H1056       H  0.46712775  0.42331289  0.78069173     0.12800
H1057       H  0.52854088  0.37118514  0.71424228     0.12900
C1058       C  0.53778402  0.42134562  0.70565386     0.62400
F1059       F  0.44350480  0.39059739  0.80708380    -0.22800
F1060       F  0.47017785  0.35885137  0.81737610    -0.20100
F1061       F  0.44445482  0.35774655  0.76973170    -0.19800
F1062       F  0.55072413  0.43776296  0.72751393    -0.19800
F1063       F  0.52817662  0.43435471  0.67686480    -0.20200
F1064       F  0.55469983  0.40376393  0.69280584    -0.22800
C1065       C  0.40813252  0.48505546  0.72552077    -0.05700
C1066       C  0.42143317  0.50273964  0.74578486     0.00200
C1067       C  0.40812855  0.52087550  0.76614660    -0.08300
C1068       C  0.38174874  0.51997559  0.76658502    -0.05700
C1069       C  0.36857094  0.50184857  0.74714539     0.00200
C1070       C  0.38175499  0.48421455  0.72602344    -0.08200
C1071       C  0.36789314  0.46448877  0.70455309     0.62100
H1072       H  0.41863208  0.47153486  0.70985941     0.12800
H1073       H  0.37112859  0.53342532  0.78220553     0.12900
C1074       C  0.42162427  0.54166008  0.78615869     0.62400
F1075       F  0.38413967  0.44958241  0.68493284    -0.22800
F1076       F  0.35149438  0.47601024  0.68112769    -0.20100
F1077       F  0.35448713  0.44914574  0.72730572    -0.19800
F1078       F  0.43765921  0.55413976  0.76326362    -0.19800
F1079       F  0.43524689  0.53166159  0.81409659    -0.20200
F1080       F  0.40501317  0.55910636  0.80013412    -0.22800
C1081       C  0.42045471  0.80514381  0.86963548    -0.05700
C1082       C  0.44619542  0.80952776  0.86578214     0.00200
C1083       C  0.45868707  0.82551489  0.89007612    -0.08300
C1084       C  0.44458490  0.83721370  0.91708681    -0.05700
C1085       C  0.41862700  0.83320869  0.92084415     0.00200
C1086       C  0.40626817  0.81672717  0.89669692    -0.08200
C1087       C  0.37829324  0.81141481  0.89880435     0.62100
H1088       H  0.41152219  0.79243911  0.85101867     0.12800
H1089       H  0.45391042  0.84957162  0.93576757     0.12900
C1090       C  0.48687171  0.82960265  0.88828473     0.62400
F1091       F  0.37001586  0.79726475  0.87018174    -0.22800
F1092       F  0.36493648  0.83373201  0.89876785    -0.20100
F1093       F  0.37308883  0.79809118  0.92953334    -0.19800
F1094       F  0.49284059  0.84317258  0.85813559    -0.19800
F1095       F  0.49918689  0.80670802  0.88733708    -0.20200
F1096       F  0.49565082  0.84278567  0.91752417    -0.22800
C1097       C  0.59125544  0.79844331  0.61804644    -0.05700
C1098       C  0.56818008  0.80884463  0.62859511     0.00200
C1099       C  0.55899031  0.83048946  0.61100937    -0.08300
C1100       C  0.57397241  0.84167859  0.58482905    -0.05700
C1101       C  0.59739358  0.83175660  0.57445764     0.00200
C1102       C  0.60606811  0.80927335  0.59101063    -0.08200
C1103       C  0.63045253  0.79634248  0.58044241     0.62100
H1104       H  0.59759921  0.78155118  0.63135845     0.12800
H1105       H  0.56715307  0.85861413  0.57218801     0.12900
C1106       C  0.53325365  0.84169904  0.61863955     0.62400
F1107       F  0.62952095  0.78953845  0.54487806    -0.22800
F1108       F  0.63474774  0.77473929  0.60003225    -0.20100
F1109       F  0.65050141  0.81223115  0.58619358    -0.19800
F1110       F  0.53393546  0.85505829  0.65018091    -0.19800
F1111       F  0.51537537  0.82298972  0.62079902    -0.20200
F1112       F  0.52573333  0.85803778  0.59200593    -0.22800
C1113       C  0.51087471  0.61895080  0.76847689    -0.05700
C1114       C  0.50082689  0.63128955  0.73885744     0.00200
C1115       C  0.49028831  0.61727302  0.71060108    -0.08300
C1116       C  0.49015474  0.59094229  0.71315293    -0.05700
C1117       C  0.50023616  0.57835234  0.74285675     0.00200
C1118       C  0.51113098  0.59263661  0.77097006    -0.08200
C1119       C  0.52349026  0.58056063  0.80323948     0.62100
H1120       H  0.51866397  0.63027123  0.78974317     0.12800
H1121       H  0.48198866  0.57996329  0.69183841     0.12900
C1122       C  0.47871932  0.63003921  0.67832295     0.62400
F1123       F  0.53583618  0.59799657  0.82421807    -0.22800
F1124       F  0.54102932  0.56296542  0.79228007    -0.20100
F1125       F  0.50549145  0.56917142  0.82422336    -0.19800
F1126       F  0.49729108  0.64127832  0.65827635    -0.19800
F1127       F  0.46159880  0.64807225  0.68915921    -0.20200
F1128       F  0.46626997  0.61315066  0.65660751    -0.22800
C1129       C  0.16348287  0.44021380  0.07773017    -0.05700
C1130       C  0.16474034  0.41388968  0.08076118     0.00200
C1131       C  0.17893066  0.40323386  0.10908948    -0.08300
C1132       C  0.19129414  0.41939472  0.13309122    -0.05700
C1133       C  0.18980324  0.44557514  0.12994610     0.00200
C1134       C  0.17604547  0.45627408  0.10154477    -0.08200
C1135       C  0.17538198  0.48447721  0.09564260     0.62100
H1136       H  0.15265882  0.44824442  0.05615900     0.12800
H1137       H  0.20219356  0.41169294  0.15487204     0.12900
C1138       C  0.18042824  0.37509498  0.11499403     0.62400
F1139       F  0.16338788  0.49074194  0.06415338    -0.22800
F1140       F  0.19959723  0.49368966  0.09402750    -0.20100
F1141       F  0.16270805  0.49605368  0.12327587    -0.19800
F1142       F  0.19400499  0.36398942  0.08779138    -0.19800
F1143       F  0.15651131  0.36518135  0.11595164    -0.20200
F1144       F  0.19208750  0.36917660  0.14688113    -0.22800
C1145       C  0.15238017  0.56818122  0.41481765    -0.05700
C1146       C  0.16166957  0.59173157  0.42579507     0.00200
C1147       C  0.18380167  0.60110663  0.40905078    -0.08300
C1148       C  0.19543005  0.58648611  0.38232491    -0.05700
C1149       C  0.18584175  0.56323747  0.37141128     0.00200
C1150       C  0.16404770  0.55371216  0.38812307    -0.08200
C1151       C  0.15340170  0.52806516  0.37885536     0.62100
H1152       H  0.13564031  0.56093464  0.42737256     0.12800
H1153       H  0.21226339  0.59318765  0.36934225     0.12900
C1154       C  0.19542002  0.62627835  0.41866412     0.62400
F1155       F  0.13499407  0.52070961  0.40266872    -0.22800
F1156       F  0.17221426  0.51013378  0.37960595    -0.20100
F1157       F  0.14273223  0.52871625  0.34535415    -0.19800
F1158       F  0.20261268  0.62632255  0.45406674    -0.19800
F1159       F  0.17833905  0.64534866  0.41261244    -0.20200
F1160       F  0.21652419  0.63141190  0.39845215    -0.22800
C1161       C  0.45997532  0.81247190  0.10014814    -0.05700
C1162       C  0.44639935  0.80381355  0.12963144     0.00200
C1163       C  0.42049943  0.80916524  0.13254730    -0.08300
C1164       C  0.40884941  0.82296856  0.10528905    -0.05700
C1165       C  0.42236496  0.83189635  0.07582877     0.00200
C1166       C  0.44836483  0.82638443  0.07281939    -0.08200
C1167       C  0.46361107  0.83421609  0.04048681     0.62100
H1168       H  0.47981733  0.80813695  0.09872980     0.12800
H1169       H  0.38903516  0.82735240  0.10710584     0.12900
C1170       C  0.40549207  0.80113993  0.16495152     0.62400
F1171       F  0.48775449  0.82456688  0.04150583    -0.22800
F1172       F  0.46538909  0.86007471  0.03910021    -0.20100
F1173       F  0.45222379  0.82550532  0.00976146    -0.19800
F1174       F  0.41611002  0.81125049  0.19536080    -0.19800
F1175       F  0.40544107  0.77526630  0.16758305    -0.20200
F1176       F  0.38080774  0.80918922  0.16312513    -0.22800
C1177       C  0.58837266  0.79872713  0.37875369    -0.05700
C1178       C  0.56569091  0.80918702  0.36702417     0.00200
C1179       C  0.55740803  0.83226015  0.38194072    -0.08300
C1180       C  0.57265565  0.84425144  0.40742390    -0.05700
C1181       C  0.59558618  0.83394339  0.41919435     0.00200
C1182       C  0.60351418  0.81043742  0.40462079    -0.08200
C1183       C  0.62755434  0.79721834  0.41602194     0.62100
H1184       H  0.59422612  0.78103784  0.36714958     0.12800
H1185       H  0.56655490  0.86205603  0.41836109     0.12900
C1186       C  0.53239561  0.84416644  0.37206826     0.62400
F1187       F  0.63085370  0.77444224  0.39878761    -0.22800
F1188       F  0.62684008  0.79237383  0.45222148    -0.20100
F1189       F  0.64806106  0.81202515  0.40797810    -0.19800
F1190       F  0.51360386  0.82630770  0.37202660    -0.19800
F1191       F  0.53409418  0.85506824  0.33879571    -0.20200
F1192       F  0.52548760  0.86274919  0.39600803    -0.22800
C1193       C  0.80345293  0.59210597  0.14114303    -0.05700
C1194       C  0.80262424  0.56584731  0.13953864     0.00200
C1195       C  0.81360980  0.55309144  0.11036616    -0.08300
C1196       C  0.82487696  0.56726106  0.08315362    -0.05700
C1197       C  0.82585373  0.59360016  0.08462041     0.00200
C1198       C  0.81545552  0.60630547  0.11451063    -0.08200
C1199       C  0.81836176  0.63444277  0.11951429     0.62100
H1200       H  0.79500734  0.60136630  0.16390764     0.12800
H1201       H  0.83323425  0.55780246  0.06049286     0.12900
C1202       C  0.81340113  0.52463716  0.10808051     0.62400
F1203       F  0.80999248  0.64228567  0.15264625    -0.22800
F1204       F  0.80469162  0.64718398  0.09396051    -0.20100
F1205       F  0.84343431  0.64076483  0.11672134    -0.19800
F1206       F  0.78904458  0.51592759  0.11055398    -0.19800
F1207       F  0.82746657  0.51470537  0.13562833    -0.20200
F1208       F  0.82345524  0.51604292  0.07629817    -0.22800
C1209       C  0.83291394  0.43664507  0.42738152    -0.05700
C1210       C  0.83396246  0.41031567  0.42502508     0.00200
C1211       C  0.82276679  0.39819333  0.39523617    -0.08300
C1212       C  0.81018033  0.41294324  0.36960146    -0.05700
C1213       C  0.80892387  0.43916453  0.37239980     0.00200
C1214       C  0.82050101  0.45131786  0.40159542    -0.08200
C1215       C  0.81919816  0.47963515  0.40585656     0.62100
H1216       H  0.84171075  0.44568804  0.45000382     0.12800
H1217       H  0.80114562  0.40409100  0.34700046     0.12900
C1218       C  0.82463409  0.36997907  0.38979225     0.62400
F1219       F  0.83023800  0.48757267  0.43728101    -0.22800
F1220       F  0.79440774  0.48737679  0.40612877    -0.20100
F1221       F  0.83155454  0.49107000  0.37788779    -0.19800
F1222       F  0.81050489  0.35777041  0.41529664    -0.19800
F1223       F  0.84940080  0.36233843  0.39233862    -0.20200
F1224       F  0.81583708  0.36278286  0.35660532    -0.22800
C1225       C  0.40714455  0.50867730  0.23626137    -0.05700
C1226       C  0.41963132  0.49606889  0.26396953     0.00200
C1227       C  0.40530868  0.48343906  0.29037952    -0.08300
C1228       C  0.37892479  0.48452809  0.28836464    -0.05700
C1229       C  0.36663041  0.49703931  0.26053347     0.00200
C1230       C  0.38084555  0.50936864  0.23397283    -0.08200
C1231       C  0.36837836  0.52371692  0.20378576     0.62100
H1232       H  0.41825916  0.51816064  0.21624960     0.12800
H1233       H  0.36756691  0.47528503  0.30834140     0.12900
C1234       C  0.41755464  0.46805343  0.31971949     0.62400
F1235       F  0.38565706  0.53666644  0.18334341    -0.22800
F1236       F  0.35149134  0.54096004  0.21751035    -0.20100
F1237       F  0.35589995  0.50723619  0.18160177    -0.19800
F1238       F  0.43025598  0.48369037  0.34290353    -0.24600
F1239       F  0.43413224  0.45090515  0.30496754    -0.20200
F1240       F  0.40006381  0.45477582  0.33935947    -0.22800
C1241       C  0.51830577  0.61393777  0.24836880    -0.05700
C1242       C  0.49702481  0.62675194  0.26086853     0.00200
C1243       C  0.47578113  0.61302676  0.27224067    -0.08300
C1244       C  0.47669711  0.58663157  0.27117075    -0.05700
C1245       C  0.49777492  0.57382568  0.25809804     0.00200
C1246       C  0.51895134  0.58752500  0.24635055    -0.08200
C1247       C  0.54219285  0.57425007  0.23236274     0.62100
H1248       H  0.53430002  0.62485960  0.23974783     0.12800
H1249       H  0.46078242  0.57571014  0.28009978     0.12900
C1250       C  0.45234008  0.62623838  0.28559302     0.62400
F1251       F  0.56096892  0.59102905  0.22347317    -0.22800
F1252       F  0.53621828  0.56061436  0.20217729    -0.20100
F1253       F  0.55147371  0.55816215  0.25809611    -0.19800
F1254       F  0.44172447  0.63998516  0.25823792    -0.19800
F1255       F  0.45841137  0.64220104  0.31335808    -0.20200
F1256       F  0.43456363  0.60940037  0.29778040    -0.22800
C1257       C  0.58697991  0.50948945  0.28359061    -0.05700
C1258       C  0.57442940  0.49746051  0.25539670     0.00200
C1259       C  0.58873865  0.48681058  0.22704702    -0.08300
C1260       C  0.61509962  0.48743818  0.22930930    -0.05700
C1261       C  0.62736271  0.49901526  0.25789200     0.00200
C1262       C  0.61325043  0.51111064  0.28475342    -0.08200
C1263       C  0.62590005  0.52681229  0.31331812     0.62100
H1264       H  0.57597108  0.51828622  0.30442417     0.12800
H1265       H  0.62649187  0.47907825  0.20851441     0.12900
C1266       C  0.57662762  0.47489364  0.19448393     0.62400
F1267       F  0.60863916  0.53860121  0.33530387    -0.22800
F1268       F  0.64034707  0.54517188  0.29733418    -0.20100
F1269       F  0.64107168  0.51182493  0.33427099    -0.19800
F1270       F  0.56399093  0.49306629  0.17517004    -0.19800
F1271       F  0.56008175  0.45631964  0.20486446    -0.20200
F1272       F  0.59418549  0.46402634  0.17202015    -0.22800
C1273       C  0.60164113  0.17909365  0.10398364    -0.05700
C1274       C  0.58889751  0.16910360  0.07450731     0.00200
C1275       C  0.56262367  0.17282009  0.07114844    -0.08300
C1276       C  0.54976848  0.18506191  0.09888996    -0.05700
C1277       C  0.56248243  0.19453441  0.12859039     0.00200
C1278       C  0.58883367  0.19204589  0.13111835    -0.08200
C1279       C  0.60323259  0.20280274  0.16247607     0.62100
H1280       H  0.62176418  0.17647539  0.10570107     0.12800
H1281       H  0.52961937  0.18760469  0.09748372     0.12900
C1282       C  0.54837231  0.16513053  0.03781545     0.62400
F1283       F  0.62856721  0.19714261  0.16062613    -0.22800
F1284       F  0.59394273  0.19309910  0.19397711    -0.20100
F1285       F  0.60073245  0.22863919  0.16289673    -0.19800
F1286       F  0.54736183  0.13926975  0.03528915    -0.19800
F1287       F  0.56019822  0.17474978  0.00799906    -0.20200
F1288       F  0.52397633  0.17413452  0.03805935    -0.22800
C1289       C  0.42030198  0.17813561  0.36491987    -0.05700
C1290       C  0.44637358  0.17960538  0.36866306     0.00200
C1291       C  0.45840009  0.16692809  0.39697050    -0.08300
C1292       C  0.44356310  0.15412319  0.42205936    -0.05700
C1293       C  0.41725973  0.15344158  0.41927394     0.00200
C1294       C  0.40543645  0.16487709  0.38947561    -0.08200
C1295       C  0.37745538  0.16248352  0.38276281     0.62100
H1296       H  0.41164295  0.18766281  0.34257572     0.12800
H1297       H  0.45242030  0.14488012  0.44446646     0.12900
C1298       C  0.48674573  0.16708487  0.40052961     0.62400
F1299       F  0.37095007  0.17066178  0.34898890    -0.22800
F1300       F  0.36428602  0.17676423  0.40724213    -0.20100
F1301       F  0.37035648  0.13760366  0.38559205    -0.19800
F1302       F  0.49513331  0.19149947  0.40414853    -0.19800
F1303       F  0.49742862  0.15650691  0.37044163    -0.20200
F1304       F  0.49477322  0.15352717  0.42986864    -0.22800
C1305       C  0.51116091  0.37835376  0.28714749    -0.05700
C1306       C  0.49726944  0.36581719  0.26098556     0.00200
C1307       C  0.48312689  0.37976107  0.23597342    -0.08300
C1308       C  0.48370627  0.40613307  0.23772128    -0.05700
C1309       C  0.49786180  0.41889168  0.26359920     0.00200
C1310       C  0.51199617  0.40476946  0.28879397    -0.08200
C1311       C  0.52872085  0.41723901  0.31639311     0.62100
H1312       H  0.52176939  0.36715775  0.30595753     0.12800
H1313       H  0.47294229  0.41706554  0.21879026     0.12900
C1314       C  0.46704432  0.36681700  0.20809319     0.62400
F1315       F  0.54326243  0.39991014  0.33460467    -0.22800
F1316       F  0.51418702  0.42985636  0.34116478    -0.20100
F1317       F  0.54477684  0.43393862  0.29984365    -0.19800
F1318       F  0.45066451  0.35040457  0.22455296    -0.19800
F1319       F  0.48209530  0.35362024  0.18461897    -0.20200
F1320       F  0.45300025  0.38381525  0.18854737    -0.22800
loop_ 
_geom_bond_atom_site_label_1 
_geom_bond_atom_site_label_2 
_geom_bond_distance 
_geom_bond_site_symmetry_2 
_ccdc_geom_bond_type 
N1            N2   1.324       .  A
N1            C5   1.346       .  A
N1           Cu9   2.073       .  S
N2            C3   1.346       .  A
N2           Cu8   2.086       .  S
C3            C4   1.383       .  A
C3            H6   1.082       .  S
C4            C5   1.381       .  A
C4         C1290   1.475       .  S
C5            H7   1.082       .  S
Cu8          N11   2.085       .  S
Cu9          N19   2.072       .  S
Cu10         N12   2.063       .  S
Cu10         N18   2.062       .  S
N11          N12   1.322       .  A
N11          C15   1.348       .  A
N12          C13   1.343       .  A
C13          C14   1.380       .  A
C13          H16   1.082       .  S
C14          C15   1.385       .  A
C14        C1306   1.477       .  S
C15          H17   1.082       .  S
N18          N19   1.322       .  A
N18          C22   1.344       .  A
N19          C20   1.344       .  A
C20          C21   1.381       .  A
C20          H23   1.082       .  S
C21          C22   1.379       .  A
C21        C1277   1.470       .  S
C22          H24   1.082       .  S
O25         Cu33   2.004       .  S
O25          C35   1.278       .  A
O26         Cu33   1.996       .  S
O26          C36   1.274       .  A
O27         Cu33   2.018       .  S
O27          C37   1.280       .  A
O28         Cu33   2.018       .  S
O28          C38   1.278       .  A
O29         Cu34   2.008       .  S
O29          C38   1.277       .  A
O30         Cu34   2.006       .  S
O30          C37   1.276       .  A
O31         Cu34   2.011       .  S
O31          C36   1.280       .  A
O32         Cu34   2.013       .  S
O32          C35   1.277       .  A
Cu33        Cu34   2.368       .  S
C35        C1226   1.486       .  S
C36        C1258   1.487       .  S
C37        C1309   1.488       .  S
C38        C1245   1.476       .  S
N39          N40   1.323       .  A
N39          C43   1.346       .  A
N39         Cu47   2.082       .  S
N40          C41   1.344       .  A
N40         Cu46   2.067       .  S
C41          C42   1.379       .  A
C41          H44   1.082       .  S
C42          C43   1.383       .  A
C42        C1261   1.474       .  S
C43          H45   1.082       .  S
Cu46         N49   2.067       .  S
Cu47         N57   2.083       .  S
Cu48         N50   2.084       .  S
Cu48         N56   2.084       .  S
N49          N50   1.323       .  A
N49          C53   1.345       .  A
N50          C51   1.346       .  A
C51          C52   1.383       .  A
C51          H54   1.082       .  S
C52          C53   1.381       .  A
C52        C1194   1.476       .  S
C53          H55   1.082       .  S
N56          N57   1.323       .  A
N56          C60   1.347       .  A
N57          C58   1.347       .  A
C58          C59   1.384       .  A
C58          H61   1.082       .  S
C59          C60   1.384       .  A
C59        C1213   1.482       .  S
C60          H62   1.082       .  S
N63          N64   1.322       .  A
N63          C67   1.344       .  A
N63         Cu71   2.067       .  S
N64          C65   1.345       .  A
N64         Cu70   2.072       .  S
C65          C66   1.383       .  A
C65          H68   1.082       .  S
C66          C67   1.380       .  A
C66        C1162   1.474       .  S
C67          H69   1.082       .  S
Cu70         N73   2.072       .  S
Cu71         N81   2.067       .  S
Cu72         N74   2.090       .  S
Cu72         N80   2.090       .  S
N73          N74   1.324       .  A
N73          C77   1.344       .  A
N74          C75   1.348       .  A
C75          C76   1.385       .  A
C75          H78   1.082       .  S
C76          C77   1.380       .  A
C76        C1242   1.478       .  S
C77          H79   1.082       .  S
N80          N81   1.322       .  A
N80          C84   1.346       .  A
N81          C82   1.344       .  A
C82          C83   1.385       .  A
C82          H85   1.078       .  S
C83          C84   1.389       .  A
C83        C1178   1.489       .  S
C84          H86   1.082       .  S
N87          N88   1.322       .  A
N87          C91   1.346       .  A
N87         Cu95   2.080       .  S
N88          C89   1.345       .  A
N88         Cu94   2.071       .  S
C89          C90   1.383       .  A
C89          H92   1.082       .  S
C90          C91   1.385       .  A
C90        C1133   1.481       .  S
C91          H93   1.082       .  S
Cu94         N97   2.070       .  S
Cu95        N105   2.080       .  S
Cu96         N98   2.083       .  S
Cu96        N104   2.083       .  S
N97          N98   1.323       .  A
N97         C101   1.344       .  A
N98          C99   1.347       .  A
C99         C100   1.384       .  A
C99         H102   1.082       .  S
C100        C101   1.381       .  A
C100       C1229   1.478       .  S
C101        H103   1.082       .  S
N104        N105   1.323       .  A
N104        C108   1.346       .  A
N105        C106   1.345       .  A
C106        C107   1.385       .  A
C106        H109   1.080       .  S
C107        C108   1.386       .  A
C107       C1149   1.486       .  S
C108        H110   1.082       .  S
N111        N112   1.322       .  A
N111        C115   1.344       .  A
N111       Cu119   2.070       .  S
N112        C113   1.344       .  A
N112       Cu118   2.068       .  S
C113        C114   1.382       .  A
C113        H116   1.082       .  S
C114        C115   1.383       .  A
C114       C1082   1.476       .  S
C115        H117   1.080       .  S
Cu118       N121   2.069       .  S
Cu119       N129   2.070       .  S
Cu120       N122   2.060       .  S
Cu120       N128   2.059       .  S
N121        N122   1.322       .  A
N121        C125   1.344       .  A
N122        C123   1.342       .  A
C123        C124   1.380       .  A
C123        H126   1.081       .  S
C124        C125   1.382       .  A
C124       C1114   1.472       .  S
C125        H127   1.082       .  S
N128        N129   1.320       .  A
N128        C132   1.343       .  A
N129        C130   1.343       .  A
C130        C131   1.386       .  A
C130        H133   1.079       .  S
C131        C132   1.383       .  A
C131       C1098   1.482       .  S
C132        H134   1.082       .  S
O135       Cu143   2.009       .  S
O135        C145   1.277       .  A
O136       Cu143   2.011       .  S
O136        C146   1.279       .  A
O137       Cu143   2.007       .  S
O137        C147   1.276       .  A
O138       Cu143   2.013       .  S
O138        C148   1.278       .  A
O139       Cu144   2.004       .  S
O139        C148   1.276       .  A
O140       Cu144   2.012       .  S
O140        C147   1.279       .  A
O141       Cu144   1.995       .  S
O141        C146   1.274       .  A
O142       Cu144   2.001       .  S
O142        C145   1.276       .  A
Cu143      Cu144   2.369       .  S
C145       C1050   1.475       .  S
C146       C1117   1.487       .  S
C147       C1034   1.487       .  S
C148       C1066   1.478       .  S
N149        N150   1.323       .  A
N149        C153   1.346       .  A
N149       Cu157   2.081       .  S
N150        C151   1.346       .  A
N150       Cu156   2.071       .  S
C151        C152   1.381       .  A
C151        H154   1.082       .  S
C152        C153   1.382       .  A
C152       C1069   1.474       .  S
C153        H155   1.082       .  S
Cu156       N159   2.070       .  S
Cu157       N167   2.082       .  S
Cu158       N160   2.080       .  S
Cu158       N166   2.081       .  S
N159        N160   1.323       .  A
N159        C163   1.345       .  A
N160        C161   1.346       .  A
C161        C162   1.383       .  A
C161        H164   1.082       .  S
C162        C163   1.381       .  A
C162       C1002   1.474       .  S
C163        H165   1.082       .  S
N166        N167   1.322       .  A
N166        C170   1.347       .  A
N167        C168   1.345       .  A
C168        C169   1.387       .  A
C168        H171   1.082       .  S
C169        C170   1.387       .  A
C169       C1021   1.490       .  S
C170        H172   1.079       .  S
N173        N174   1.323       .  A
N173        C177   1.346       .  A
N173       Cu181   2.080       .  S
N174        C175   1.345       .  A
N174       Cu180   2.069       .  S
C175        C176   1.380       .  A
C175        H178   1.082       .  S
C176        C177   1.381       .  A
C176       C1053   1.473       .  S
C177        H179   1.082       .  S
Cu180       N183   2.069       .  S
Cu181       N191   2.081       .  S
Cu182       N184   2.082       .  S
Cu182       N190   2.083       .  S
N183        N184   1.321       .  A
N183        C187   1.344       .  A
N184        C185   1.345       .  A
C185        C186   1.389       .  A
C185        H188   1.077       .  S
C186        C187   1.387       .  A
C186        C970   1.491       .  S
C187        H189   1.082       .  S
N190        N191   1.322       .  A
N190        C194   1.347       .  A
N191        C192   1.347       .  A
C192        C193   1.386       .  A
C192        H195   1.081       .  S
C193        C194   1.386       .  A
C193        C986   1.485       .  S
C194        H196   1.082       .  S
N197        N198   1.322       .  A
N197        C201   1.345       .  A
N197       Cu205   2.074       .  S
N198        C199   1.345       .  A
N198       Cu204   2.075       .  S
C199        C200   1.381       .  A
C199        H202   1.082       .  S
C200        C201   1.382       .  A
C200        C938   1.476       .  S
C201        H203   1.082       .  S
Cu204       N207   2.075       .  S
Cu205       N215   2.074       .  S
Cu206       N208   2.080       .  S
Cu206       N214   2.080       .  S
N207        N208   1.323       .  A
N207        C211   1.345       .  A
N208        C209   1.346       .  A
C209        C210   1.382       .  A
C209        H212   1.083       .  S
C210        C211   1.382       .  A
C210       C1037   1.476       .  S
C211        H213   1.081       .  S
N214        N215   1.323       .  A
N214        C218   1.346       .  A
N215        C216   1.345       .  A
C216        C217   1.382       .  A
C216        H219   1.081       .  S
C217        C218   1.383       .  A
C217        C954   1.478       .  S
C218        H220   1.082       .  S
N221        N222   1.322   1_655  A
N221        C225   1.344       .  A
N221       Cu229   2.071       .  S
N222        C223   1.343       .  A
N222       Cu228   2.060       .  S
C223        C224   1.380       .  A
C223        H226   1.082       .  S
C224        C225   1.382   1_455  A
C224        C922   1.471       .  S
C225        H227   1.082       .  S
Cu228       N231   2.059       .  S
Cu229       N239   2.072       .  S
Cu230       N232   2.074   1_655  S
Cu230       N238   2.074       .  S
N231        N232   1.322       .  A
N231        C235   1.342       .  A
N232        C233   1.346       .  A
C233        C234   1.382       .  A
C233        H236   1.082       .  S
C234        C235   1.377       .  A
C234        C893   1.469       .  S
C235        H237   1.082       .  S
N238        N239   1.323       .  A
N238        C242   1.344       .  A
N239        C240   1.345       .  A
C240        C241   1.383       .  A
C240        H243   1.081       .  S
C241        C242   1.382       .  A
C241        C906   1.477       .  S
C242        H244   1.082       .  S
O245       Cu253   2.023       .  S
O245        C255   1.279       .  A
O246       Cu253   2.022   1_645  S
O246        C256   1.278       .  A
O247       Cu253   2.008   1_545  S
O247        C257   1.278       .  A
O248       Cu253   2.007       .  S
O248        C258   1.276       .  A
O249       Cu254   2.000       .  S
O249        C258   1.278       .  A
O250       Cu254   1.997   1_545  S
O250        C257   1.275       .  A
O251       Cu254   2.005   1_655  S
O251        C256   1.279   1_565  A
O252       Cu254   2.004       .  S
O252        C255   1.276       .  A
Cu253      Cu254   2.366       .  S
C255        C874   1.479       .  S
C256        C842   1.503       .  S
C257        C858   1.484       .  S
C258        C925   1.479       .  S
N259        N260   1.323       .  A
N259        C263   1.346       .  A
N259       Cu267   2.077   1_545  S
N260        C261   1.346       .  A
N260       Cu266   2.079       .  S
C261        C262   1.383       .  A
C261        H264   1.082       .  S
C262        C263   1.383       .  A
C262        C810   1.479       .  S
C263        H265   1.082       .  S
Cu266       N269   2.079       .  S
Cu267       N277   2.077       .  S
Cu268       N270   2.077       .  S
Cu268       N276   2.077       .  S
N269        N270   1.323   1_545  A
N269        C273   1.347       .  A
N270        C271   1.345       .  A
C271        C272   1.381   1_565  A
C271        H274   1.082       .  S
C272        C273   1.382       .  A
C272        C877   1.475       .  S
C273        H275   1.082       .  S
N276        N277   1.322       .  A
N276        C280   1.346       .  A
N277        C278   1.344       .  A
C278        C279   1.386       .  A
C278        H281   1.082       .  S
C279        C280   1.387       .  A
C279        C826   1.487       .  S
C280        H282   1.079       .  S
N283        N284   1.322       .  A
N283        C287   1.347       .  A
N283       Cu291   2.083       .  S
N284        C285   1.344       .  A
N284       Cu290   2.067       .  S
C285        C286   1.380       .  A
C285        H288   1.082       .  S
C286        C287   1.384       .  A
C286        C778   1.476       .  S
C287        H289   1.082       .  S
Cu290       N293   2.067       .  S
Cu291       N301   2.083   1_655  S
Cu292       N294   2.080       .  S
Cu292       N300   2.081       .  S
N293        N294   1.323   1_655  A
N293        C297   1.344       .  A
N294        C295   1.345       .  A
C295        C296   1.384       .  A
C295        H298   1.082       .  S
C296        C297   1.381   1_455  A
C296        C861   1.475       .  S
C297        H299   1.082       .  S
N300        N301   1.324       .  A
N300        C304   1.347       .  A
N301        C302   1.346       .  A
C302        C303   1.382       .  A
C302        H305   1.082       .  S
C303        C304   1.383       .  A
C303        C797   1.479       .  S
C304        H306   1.082       .  S
N307        N308   1.320   1_545  A
N307        C311   1.345       .  A
N307       Cu315   2.076       .  S
N308        C309   1.345       .  A
N308       Cu314   2.072       .  S
C309        C310   1.386   1_565  A
C309        H312   1.082       .  S
C310        C311   1.387       .  A
C310        C845   1.487       .  S
C311        H313   1.078       .  S
Cu314       N317   2.072       .  S
Cu315       N325   2.076       .  S
Cu316       N318   2.080   1_545  S
Cu316       N324   2.080       .  S
N317        N318   1.323       .  A
N317        C321   1.344       .  A
N318        C319   1.346       .  A
C319        C320   1.384       .  A
C319        H322   1.081       .  S
C320        C321   1.381       .  A
C320        C746   1.478       .  S
C321        H323   1.082       .  S
N324        N325   1.323       .  A
N324        C328   1.346       .  A
N325        C326   1.345       .  A
C326        C327   1.382       .  A
C326        H329   1.083       .  S
C327        C328   1.384       .  A
C327        C762   1.478       .  S
C328        H330   1.082       .  S
N331        N332   1.322   1_655  A
N331        C335   1.343       .  A
N331       Cu339   2.065       .  S
N332        C333   1.346       .  A
N332       Cu338   2.077       .  S
C333        C334   1.383   1_455  A
C333        H336   1.082       .  S
C334        C335   1.381       .  A
C334        C733   1.474   1_655  S
C335        H337   1.082       .  S
Cu338       N341   2.077       .  S
Cu339       N349   2.065       .  S
Cu340       N342   2.078   1_655  S
Cu340       N348   2.077       .  S
N341        N342   1.322       .  A
N341        C345   1.344       .  A
N342        C343   1.347       .  A
C343        C344   1.387       .  A
C343        H346   1.079       .  S
C344        C345   1.386       .  A
C344        C717   1.487       .  S
C345        H347   1.082       .  S
N348        N349   1.321       .  A
N348        C352   1.344       .  A
N349        C350   1.344       .  A
C350        C351   1.384       .  A
C350        H353   1.081       .  S
C351        C352   1.385       .  A
C351        C701   1.480       .  S
C352        H354   1.082       .  S
O355       Cu363   2.015   1_545  S
O355        C365   1.279       .  A
O356       Cu363   2.012   1_655  S
O356        C366   1.279       .  A
O357       Cu363   2.012   1_645  S
O357        C367   1.277       .  A
O358       Cu363   2.012       .  S
O358        C368   1.279       .  A
O359       Cu364   2.006   1_565  S
O359        C368   1.276       .  A
O360       Cu364   2.001       .  S
O360        C367   1.278   1_455  A
O361       Cu364   2.011   1_655  S
O361        C366   1.277   1_545  A
O362       Cu364   2.013       .  S
O362        C365   1.278       .  A
Cu363      Cu364   2.369   1_565  S
C365        C653   1.490       .  S
C366        C682   1.485       .  S
C367        C730   1.481       .  S
C368        C669   1.482       .  S
N369        N370   1.323       .  A
N369        C373   1.345       .  A
N369       Cu377   2.073   1_565  S
N370        C371   1.344       .  A
N370       Cu376   2.075       .  S
C371        C372   1.381       .  A
C371        H374   1.082       .  S
C372        C373   1.381       .  A
C372        C618   1.473       .  S
C373        H375   1.082       .  S
Cu376       N379   2.075       .  S
Cu377       N387   2.073       .  S
Cu378       N380   2.072       .  S
Cu378       N386   2.071       .  S
N379        N380   1.322   1_565  A
N379        C383   1.345       .  A
N380        C381   1.345       .  A
C381        C382   1.382   1_545  A
C381        H384   1.082       .  S
C382        C383   1.382       .  A
C382        C685   1.476       .  S
C383        H385   1.082       .  S
N386        N387   1.322       .  A
N386        C390   1.344       .  A
N387        C388   1.346       .  A
C388        C389   1.382       .  A
C388        H391   1.082       .  S
C389        C390   1.381       .  A
C389        C634   1.474       .  S
C390        H392   1.081       .  S
N393        N394   1.322       .  A
N393        C397   1.345       .  A
N393       Cu401   2.080       .  S
N394        C395   1.346       .  A
N394       Cu400   2.073       .  S
C395        C396   1.384       .  A
C395        H398   1.082       .  S
C396        C397   1.384       .  A
C396        C602   1.481       .  S
C397        H399   1.080       .  S
Cu400       N403   2.073   1_655  S
Cu401       N411   2.081   1_655  S
Cu402       N404   2.082       .  S
Cu402       N410   2.082       .  S
N403        N404   1.323       .  A
N403        C407   1.345   1_455  A
N404        C405   1.347       .  A
C405        C406   1.383       .  A
C405        H408   1.082       .  S
C406        C407   1.381   1_455  A
C406        C666   1.476       .  S
C407        H409   1.081       .  S
N410        N411   1.322       .  A
N410        C414   1.345       .  A
N411        C412   1.348       .  A
C412        C413   1.388       .  A
C412        H415   1.080       .  S
C413        C414   1.387       .  A
C413        C586   1.489       .  S
C414        H416   1.082       .  S
N417        N418   1.322       .  A
N417        C421   1.344       .  A
N417       Cu425   2.068       .  S
N418        C419   1.347       .  A
N418       Cu424   2.082       .  S
C419        C420   1.386       .  A
C419        H422   1.081       .  S
C420        C421   1.381       .  A
C420        C570   1.479       .  S
C421        H423   1.082       .  S
Cu424       N427   2.082       .  S
Cu425       N435   2.069   1_565  S
Cu426       N428   2.092       .  S
Cu426       N434   2.092       .  S
N427        N428   1.324   1_565  A
N427        C431   1.347       .  A
N428        C429   1.347       .  A
C429        C430   1.385       .  A
C429        H432   1.082       .  S
C430        C431   1.384   1_545  A
C430        C650   1.483       .  S
C431        H433   1.082       .  S
N434        N435   1.322       .  A
N434        C438   1.349       .  A
N435        C436   1.345       .  A
C436        C437   1.380       .  A
C436        H439   1.082       .  S
C437        C438   1.387       .  A
C437        C557   1.481       .  S
C438        H440   1.081       .  S
O441       Cu449   2.013   1_556  S
O441        C451   1.278       .  A
O442       Cu449   2.016       .  S
O442        C452   1.277       .  A
O443       Cu449   2.025   1_556  S
O443        C453   1.280       .  A
O444       Cu449   2.027       .  S
O444        C454   1.279       .  A
O445       Cu450   2.010       .  S
O445        C454   1.278       .  A
O446       Cu450   2.012   1_556  S
O446        C453   1.277       .  A
O447       Cu450   2.009       .  S
O447        C452   1.279       .  A
O448       Cu450   2.004   1_556  S
O448        C451   1.276       .  A
Cu449      Cu450   2.364       .  S
C451       C1005   1.482       .  S
C452        C714   1.501       .  S
C453        C794   1.488       .  S
C454       C1130   1.494       .  S
O455       Cu463   2.001       .  S
O455        C465   1.278       .  A
O456       Cu463   1.999   1_554  S
O456        C466   1.275       .  A
O457       Cu463   1.995       .  S
O457        C467   1.278       .  A
O458       Cu463   2.000   1_554  S
O458        C468   1.276       .  A
O459       Cu464   2.018   1_554  S
O459        C468   1.279       .  A
O460       Cu464   2.018       .  S
O460        C467   1.277       .  A
O461       Cu464   2.007   1_554  S
O461        C466   1.278       .  A
O462       Cu464   2.013       .  S
O462        C465   1.277       .  A
Cu463      Cu464   2.368       .  S
C465        C765   1.486       .  S
C466       C1274   1.476       .  S
C467        C973   1.498       .  S
C468        C637   1.475       .  S
O469       Cu477   2.011       .  S
O469        C479   1.280       .  A
O470       Cu477   2.013   1_556  S
O470        C480   1.279       .  A
O471       Cu477   2.000   1_556  S
O471        C481   1.274       .  A
O472       Cu477   2.005       .  S
O472        C482   1.277       .  A
O473       Cu478   2.016       .  S
O473        C482   1.278       .  A
O474       Cu478   2.012   1_556  S
O474        C481   1.280       .  A
O475       Cu478   2.006   1_556  S
O475        C480   1.276       .  A
O476       Cu478   2.004       .  S
O476        C479   1.274       .  A
Cu477      Cu478   2.362       .  S
C479        C605   1.498       .  S
C480        C941   1.488       .  S
C481        C909   1.495       .  S
C482       C1197   1.484       .  S
O483       Cu491   2.010       .  S
O483        C493   1.279       .  A
O484       Cu491   2.004   1_556  S
O484        C494   1.276       .  A
O485       Cu491   2.005       .  S
O485        C495   1.277       .  A
O486       Cu491   2.012   1_556  S
O486        C496   1.279       .  A
O487       Cu492   2.017   1_556  S
O487        C496   1.277       .  A
O488       Cu492   2.013       .  S
O488        C495   1.277       .  A
O489       Cu492   2.005   1_556  S
O489        C494   1.278       .  A
O490       Cu492   2.013       .  S
O490        C493   1.277       .  A
Cu491      Cu492   2.362       .  S
C493        C573   1.496       .  S
C494       C1085   1.489       .  S
C495       C1165   1.480       .  S
C496        C829   1.503       .  S
O497       Cu505   2.003       .  S
O497        C507   1.277       .  A
O498       Cu505   2.009       .  S
O498        C508   1.279       .  A
O499       Cu505   2.025       .  S
O499        C509   1.281       .  A
O500       Cu505   2.024       .  S
O500        C510   1.280       .  A
O501       Cu506   2.015       .  S
O501        C510   1.277       .  A
O502       Cu506   2.013       .  S
O502        C509   1.276       .  A
O503       Cu506   2.017       .  S
O503        C508   1.277       .  A
O504       Cu506   2.012       .  S
O504        C507   1.277       .  A
Cu505      Cu506   2.360       .  S
C507        C890   1.479       .  S
C508       C1146   1.503       .  S
C509       C1018   1.504       .  S
C510        C589   1.497       .  S
O511       Cu519   2.012       .  S
O511        C521   1.278       .  A
O512       Cu519   2.007       .  S
O512        C522   1.278       .  A
O513       Cu519   2.031       .  S
O513        C523   1.279       .  A
O514       Cu519   2.028       .  S
O514        C524   1.279       .  A
O515       Cu520   2.009       .  S
O515        C524   1.278       .  A
O516       Cu520   2.009       .  S
O516        C523   1.278       .  A
O517       Cu520   2.011       .  S
O517        C522   1.277       .  A
O518       Cu520   2.011       .  S
O518        C521   1.277       .  A
Cu519      Cu520   2.366       .  S
C521       C1293   1.485       .  S
C522        C813   1.483       .  S
C523        C554   1.494       .  S
C524        C989   1.496       .  S
O525       Cu533   2.025       .  S
O525        C535   1.279       .  A
O526       Cu533   2.019       .  S
O526        C536   1.279       .  A
O527       Cu533   2.008       .  S
O527        C537   1.277       .  A
O528       Cu533   2.002       .  S
O528        C538   1.279       .  A
O529       Cu534   2.014       .  S
O529        C538   1.276       .  A
O530       Cu534   2.016       .  S
O530        C537   1.279       .  A
O531       Cu534   2.014       .  S
O531        C536   1.277       .  A
O532       Cu534   2.015       .  S
O532        C535   1.279       .  A
Cu533      Cu534   2.365       .  S
C535       C1210   1.491       .  S
C536        C781   1.490       .  S
C537        C957   1.484       .  S
C538        C698   1.498       .  S
O539       Cu547   2.010       .  S
O539        C549   1.279       .  A
O540       Cu547   2.018       .  S
O540        C550   1.280       .  A
O541       Cu547   1.990       .  S
O541        C551   1.277       .  A
O542       Cu547   1.998       .  S
O542        C552   1.276       .  A
O543       Cu548   2.012       .  S
O543        C552   1.278       .  A
O544       Cu548   2.014       .  S
O544        C551   1.276       .  A
O545       Cu548   2.005       .  S
O545        C550   1.275       .  A
O546       Cu548   2.008       .  S
O546        C549   1.276       .  A
Cu547      Cu548   2.362       .  S
C549        C749   1.487       .  S
C550       C1181   1.502       .  S
C551       C1101   1.496       .  S
C552        C621   1.480       .  S
C553        C554   1.407       .  A
C553        C558   1.406       .  A
C553        H560   1.082       .  S
C554        C555   1.423       .  A
C555        C556   1.413       .  A
C555        C562   1.519       .  S
C556        C557   1.403       .  A
C556        H561   1.083       .  S
C557        C558   1.413       .  A
C558        C559   1.518       .  S
C559        F563   1.384       .  S
C559        F564   1.382       .  S
C559        F565   1.383       .  S
C562        F566   1.383       .  S
C562        F567   1.382       .  S
C562        F568   1.385       .  S
C569        C570   1.399       .  A
C569        C574   1.408       .  A
C569        H576   1.083       .  S
C570        C571   1.413       .  A
C571        C572   1.408       .  A
C571        C578   1.518       .  S
C572        C573   1.409       .  A
C572        H577   1.083       .  S
C573        C574   1.426       .  A
C574        C575   1.519       .  S
C575        F579   1.385       .  S
C575        F580   1.380       .  S
C575        F581   1.383       .  S
C578        F582   1.381       .  S
C578        F583   1.384       .  S
C578        F584   1.385       .  S
C585        C586   1.402       .  A
C585        C590   1.408       .  A
C585        H592   1.083       .  S
C586        C587   1.418       .  A
C587        C588   1.411       .  A
C587        C594   1.519       .  S
C588        C589   1.408       .  A
C588        H593   1.083       .  S
C589        C590   1.424       .  A
C590        C591   1.518       .  S
C591        F595   1.385       .  S
C591        F596   1.382       .  S
C591        F597   1.383       .  S
C594        F598   1.381       .  S
C594        F599   1.383   1_455  S
C594        F600   1.385       .  S
C601        C602   1.401       .  A
C601        C606   1.411       .  A
C601        H608   1.083       .  S
C602        C603   1.414       .  A
C603        C604   1.404       .  A
C603        C610   1.520       .  S
C604        C605   1.409       .  A
C604        H609   1.082       .  S
C605        C606   1.429       .  A
C606        C607   1.523       .  S
C607        F611   1.385       .  S
C607        F612   1.382       .  S
C607        F613   1.383       .  S
C610        F614   1.380       .  S
C610        F615   1.383       .  S
C610        F616   1.385       .  S
C617        C618   1.400       .  A
C617        C622   1.405       .  A
C617        H624   1.083       .  S
C618        C619   1.413       .  A
C619        C620   1.407       .  A
C619        C626   1.518       .  S
C620        C621   1.407       .  A
C620        H625   1.083       .  S
C621        C622   1.418       .  A
C622        C623   1.519       .  S
C623        F627   1.384       .  S
C623        F628   1.384       .  S
C623        F629   1.382       .  S
C626        F630   1.382       .  S
C626        F631   1.383       .  S
C626        F632   1.385       .  S
C633        C634   1.400       .  A
C633        C638   1.406       .  A
C633        H640   1.084       .  S
C634        C635   1.415       .  A
C635        C636   1.408       .  A
C635        C642   1.517       .  S
C636        C637   1.402       .  A
C636        H641   1.083       .  S
C637        C638   1.417       .  A
C638        C639   1.518       .  S
C639        F643   1.384       .  S
C639        F644   1.383       .  S
C639        F645   1.382       .  S
C642        F646   1.384       .  S
C642        F647   1.382       .  S
C642        F648   1.384       .  S
C649        C650   1.401   1_565  A
C649        C654   1.408       .  A
C649        H656   1.083       .  S
C650        C651   1.416       .  A
C651        C652   1.410       .  A
C651        C658   1.518       .  S
C652        C653   1.407       .  A
C652        H657   1.083       .  S
C653        C654   1.422   1_545  A
C654        C655   1.520       .  S
C655        F659   1.385       .  S
C655        F660   1.384       .  S
C655        F661   1.382       .  S
C658        F662   1.382       .  S
C658        F663   1.383       .  S
C658        F664   1.385       .  S
C665        C666   1.401   1_655  A
C665        C670   1.409       .  A
C665        H672   1.083       .  S
C666        C667   1.413       .  A
C667        C668   1.406       .  A
C667        C674   1.517       .  S
C668        C669   1.405       .  A
C668        H673   1.083       .  S
C669        C670   1.420   1_455  A
C670        C671   1.520       .  S
C671        F675   1.385       .  S
C671        F676   1.384       .  S
C671        F677   1.382       .  S
C674        F678   1.382       .  S
C674        F679   1.383       .  S
C674        F680   1.385       .  S
C681        C682   1.406       .  A
C681        C686   1.407       .  A
C681        H688   1.083       .  S
C682        C683   1.422   1_565  A
C683        C684   1.408       .  A
C683        C690   1.520       .  S
C684        C685   1.401   1_545  A
C684        H689   1.083       .  S
C685        C686   1.413       .  A
C686        C687   1.518       .  S
C687        F691   1.384       .  S
C687        F692   1.382       .  S
C687        F693   1.384       .  S
C690        F694   1.383       .  S
C690        F695   1.382       .  S
C690        F696   1.385       .  S
C697        C698   1.411       .  A
C697        C702   1.405       .  A
C697        H704   1.082       .  S
C698        C699   1.427       .  A
C699        C700   1.408       .  A
C699        C706   1.522       .  S
C700        C701   1.401       .  A
C700        H705   1.083       .  S
C701        C702   1.414       .  A
C702        C703   1.521       .  S
C703        F707   1.385       .  S
C703        F708   1.380       .  S
C703        F709   1.383       .  S
C706        F710   1.381       .  S
C706        F711   1.383       .  S
C706        F712   1.385       .  S
C713        C714   1.411       .  A
C713        C718   1.408       .  A
C713        H720   1.082       .  S
C714        C715   1.427       .  A
C715        C716   1.409       .  A
C715        C722   1.521       .  S
C716        C717   1.402       .  A
C716        H721   1.082       .  S
C717        C718   1.416       .  A
C718        C719   1.520       .  S
C719        F723   1.385       .  S
C719        F724   1.381       .  S
C719        F725   1.383   1_455  S
C722        F726   1.381       .  S
C722        F727   1.383       .  S
C722        F728   1.385       .  S
C729        C730   1.405   1_455  A
C729        C734   1.404       .  A
C729        H736   1.083       .  S
C730        C731   1.420       .  A
C731        C732   1.408       .  A
C731        C738   1.519       .  S
C732        C733   1.401   1_655  A
C732        H737   1.083       .  S
C733        C734   1.414       .  A
C734        C735   1.519       .  S
C735        F739   1.385       .  S
C735        F740   1.381       .  S
C735        F741   1.383       .  S
C738        F742   1.383       .  S
C738        F743   1.382       .  S
C738        F744   1.385       .  S
C745        C746   1.402       .  A
C745        C750   1.409       .  A
C745        H752   1.083       .  S
C746        C747   1.415       .  A
C747        C748   1.405       .  A
C747        C754   1.518       .  S
C748        C749   1.405       .  A
C748        H753   1.082       .  S
C749        C750   1.423       .  A
C750        C751   1.520       .  S
C751        F755   1.385       .  S
C751        F756   1.383       .  S
C751        F757   1.382       .  S
C754        F758   1.383       .  S
C754        F759   1.381       .  S
C754        F760   1.385       .  S
C761        C762   1.402       .  A
C761        C766   1.409       .  A
C761        H768   1.083       .  S
C762        C763   1.414       .  A
C763        C764   1.405       .  A
C763        C770   1.518       .  S
C764        C765   1.406       .  A
C764        H769   1.084       .  S
C765        C766   1.422       .  A
C766        C767   1.520       .  S
C767        F771   1.385       .  S
C767        F772   1.383       .  S
C767        F773   1.384       .  S
C770        F774   1.383       .  S
C770        F775   1.381       .  S
C770        F776   1.385       .  S
C777        C778   1.399       .  A
C777        C782   1.408       .  A
C777        H784   1.083       .  S
C778        C779   1.412       .  A
C779        C780   1.408       .  A
C779        C786   1.517       .  S
C780        C781   1.407       .  A
C780        H785   1.082       .  S
C781        C782   1.423       .  A
C782        C783   1.517       .  S
C783        F787   1.385       .  S
C783        F788   1.382       .  S
C783        F789   1.382       .  S
C786        F790   1.383       .  S
C786        F791   1.382       .  S
C786        F792   1.384       .  S
C793        C794   1.407       .  A
C793        C798   1.411       .  A
C793        H800   1.083       .  S
C794        C795   1.422       .  A
C795        C796   1.408       .  A
C795        C802   1.519       .  S
C796        C797   1.399       .  A
C796        H801   1.083       .  S
C797        C798   1.414       .  A
C798        C799   1.518       .  S
C799        F803   1.384       .  S
C799        F804   1.384       .  S
C799        F805   1.382       .  S
C802        F806   1.383       .  S
C802        F807   1.383       .  S
C802        F808   1.385       .  S
C809        C810   1.402       .  A
C809        C814   1.409       .  A
C809        H816   1.083       .  S
C810        C811   1.415       .  A
C811        C812   1.406       .  A
C811        C818   1.519       .  S
C812        C813   1.404       .  A
C812        H817   1.082       .  S
C813        C814   1.420       .  A
C814        C815   1.519       .  S
C815        F819   1.384       .  S
C815        F820   1.383       .  S
C815        F821   1.384       .  S
C818        F822   1.383       .  S
C818        F823   1.381       .  S
C818        F824   1.385       .  S
C825        C826   1.401       .  A
C825        C830   1.409       .  A
C825        H832   1.083       .  S
C826        C827   1.416       .  A
C827        C828   1.409       .  A
C827        C834   1.520       .  S
C828        C829   1.412       .  A
C828        H833   1.082       .  S
C829        C830   1.428       .  A
C830        C831   1.521       .  S
C831        F835   1.385       .  S
C831        F836   1.383       .  S
C831        F837   1.380       .  S
C834        F838   1.383       .  S
C834        F839   1.382       .  S
C834        F840   1.385       .  S
C841        C842   1.411       .  A
C841        C846   1.406       .  A
C841        H848   1.082       .  S
C842        C843   1.427       .  A
C843        C844   1.411       .  A
C843        C850   1.521       .  S
C844        C845   1.403       .  A
C844        H849   1.083       .  S
C845        C846   1.416       .  A
C846        C847   1.521       .  S
C847        F851   1.385   1_545  S
C847        F852   1.383   1_545  S
C847        F853   1.380       .  S
C850        F854   1.383   1_545  S
C850        F855   1.383       .  S
C850        F856   1.385       .  S
C857        C858   1.406       .  A
C857        C862   1.406       .  A
C857        H864   1.083       .  S
C858        C859   1.422   1_455  A
C859        C860   1.406       .  A
C859        C866   1.521       .  S
C860        C861   1.400   1_655  A
C860        H865   1.083       .  S
C861        C862   1.414       .  A
C862        C863   1.519       .  S
C863        F867   1.385       .  S
C863        F868   1.383       .  S
C863        F869   1.381       .  S
C866        F870   1.383       .  S
C866        F871   1.384       .  S
C866        F872   1.384       .  S
C873        C874   1.404   1_545  A
C873        C878   1.407       .  A
C873        H880   1.084       .  S
C874        C875   1.417       .  A
C875        C876   1.409       .  A
C875        C882   1.518       .  S
C876        C877   1.402   1_565  A
C876        H881   1.083       .  S
C877        C878   1.413       .  A
C878        C879   1.517       .  S
C879        F883   1.384       .  S
C879        F884   1.383       .  S
C879        F885   1.383       .  S
C882        F886   1.382       .  S
C882        F887   1.384       .  S
C882        F888   1.385       .  S
C889        C890   1.405       .  A
C889        C894   1.405       .  A
C889        H896   1.083       .  S
C890        C891   1.420       .  A
C891        C892   1.406       .  A
C891        C898   1.517       .  S
C892        C893   1.399       .  A
C892        H897   1.083       .  S
C893        C894   1.411       .  A
C894        C895   1.517       .  S
C895        F899   1.384       .  S
C895        F900   1.383       .  S
C895        F901   1.383   1_455  S
C898        F902   1.382       .  S
C898        F903   1.383       .  S
C898        F904   1.385       .  S
C905        C906   1.399       .  A
C905        C910   1.407       .  A
C905        H912   1.083       .  S
C906        C907   1.413       .  A
C907        C908   1.406       .  A
C907        C914   1.519       .  S
C908        C909   1.409       .  A
C908        H913   1.082       .  S
C909        C910   1.428       .  A
C910        C911   1.522       .  S
C911        F915   1.385       .  S
C911        F916   1.383       .  S
C911        F917   1.384       .  S
C914        F918   1.383       .  S
C914        F919   1.381       .  S
C914        F920   1.385       .  S
C921        C922   1.401   1_655  A
C921        C926   1.407       .  A
C921        H928   1.084       .  S
C922        C923   1.413       .  A
C923        C924   1.403       .  A
C923        C930   1.518       .  S
C924        C925   1.404       .  A
C924        H929   1.083       .  S
C925        C926   1.420   1_455  A
C926        C927   1.520       .  S
C927        F931   1.385       .  S
C927        F932   1.382       .  S
C927        F933   1.384       .  S
C930        F934   1.383       .  S
C930        F935   1.382       .  S
C930        F936   1.385       .  S
C937        C938   1.399       .  A
C937        C942   1.408       .  A
C937        H944   1.083       .  S
C938        C939   1.414       .  A
C939        C940   1.407       .  A
C939        C946   1.518       .  S
C940        C941   1.406       .  A
C940        H945   1.083       .  S
C941        C942   1.424       .  A
C942        C943   1.521       .  S
C943        F947   1.385       .  S
C943        F948   1.384       .  S
C943        F949   1.383       .  S
C946        F950   1.382       .  S
C946        F951   1.383       .  S
C946        F952   1.384       .  S
C953        C954   1.401       .  A
C953        C958   1.408       .  A
C953        H960   1.083       .  S
C954        C955   1.415       .  A
C955        C956   1.407       .  A
C955        C962   1.518       .  S
C956        C957   1.404       .  A
C956        H961   1.083       .  S
C957        C958   1.421       .  A
C958        C959   1.519       .  S
C959        F963   1.385       .  S
C959        F964   1.382       .  S
C959        F965   1.382       .  S
C962        F966   1.382       .  S
C962        F967   1.383       .  S
C962        F968   1.384       .  S
C969        C970   1.407       .  A
C969        C974   1.411       .  A
C969        H976   1.082       .  S
C970        C971   1.418       .  A
C971        C972   1.403       .  A
C971        C978   1.520       .  S
C972        C973   1.408       .  A
C972        H977   1.082       .  S
C973        C974   1.424       .  A
C974        C975   1.521       .  S
C975        F979   1.385       .  S
C975        F980   1.383       .  S
C975        F981   1.384       .  S
C978        F982   1.381       .  S
C978        F983   1.383       .  S
C978        F984   1.385       .  S
C985        C986   1.402       .  A
C985        C990   1.411       .  A
C985        H992   1.083       .  S
C986        C987   1.416       .  A
C987        C988   1.409       .  A
C987        C994   1.520       .  S
C988        C989   1.409       .  A
C988        H993   1.082       .  S
C989        C990   1.423       .  A
C990        C991   1.519       .  S
C991        F995   1.385       .  S
C991        F996   1.384       .  S
C991        F997   1.382       .  S
C994        F998   1.381       .  S
C994        F999   1.383       .  S
C994       F1000   1.385       .  S
C1001      C1002   1.399       .  A
C1001      C1006   1.406       .  A
C1001      H1008   1.083       .  S
C1002      C1003   1.414       .  A
C1003      C1004   1.407       .  A
C1003      C1010   1.517       .  S
C1004      C1005   1.405       .  A
C1004      H1009   1.083       .  S
C1005      C1006   1.421       .  A
C1006      C1007   1.520       .  S
C1007      F1011   1.385       .  S
C1007      F1012   1.383       .  S
C1007      F1013   1.382       .  S
C1010      F1014   1.382       .  S
C1010      F1015   1.383       .  S
C1010      F1016   1.385       .  S
C1017      C1018   1.410       .  A
C1017      C1022   1.410       .  A
C1017      H1024   1.082       .  S
C1018      C1019   1.429       .  A
C1019      C1020   1.410       .  A
C1019      C1026   1.522       .  S
C1020      C1021   1.401       .  A
C1020      H1025   1.083       .  S
C1021      C1022   1.418       .  A
C1022      C1023   1.520       .  S
C1023      F1027   1.385       .  S
C1023      F1028   1.381       .  S
C1023      F1029   1.384       .  S
C1026      F1030   1.380       .  S
C1026      F1031   1.383       .  S
C1026      F1032   1.385       .  S
C1033      C1034   1.406       .  A
C1033      C1038   1.406       .  A
C1033      H1040   1.083       .  S
C1034      C1035   1.424       .  A
C1035      C1036   1.409       .  A
C1035      C1042   1.521       .  S
C1036      C1037   1.400       .  A
C1036      H1041   1.083       .  S
C1037      C1038   1.412       .  A
C1038      C1039   1.518       .  S
C1039      F1043   1.384       .  S
C1039      F1044   1.382       .  S
C1039      F1045   1.383       .  S
C1042      F1046   1.384       .  S
C1042      F1047   1.383       .  S
C1042      F1048   1.385       .  S
C1049      C1050   1.403       .  A
C1049      C1054   1.405       .  A
C1049      H1056   1.083       .  S
C1050      C1051   1.418       .  A
C1051      C1052   1.408       .  A
C1051      C1058   1.519       .  S
C1052      C1053   1.401       .  A
C1052      H1057   1.083       .  S
C1053      C1054   1.413       .  A
C1054      C1055   1.517       .  S
C1055      F1059   1.384       .  S
C1055      F1060   1.383       .  S
C1055      F1061   1.383       .  S
C1058      F1062   1.384       .  S
C1058      F1063   1.382       .  S
C1058      F1064   1.384       .  S
C1065      C1066   1.404       .  A
C1065      C1070   1.407       .  A
C1065      H1072   1.083       .  S
C1066      C1067   1.419       .  A
C1067      C1068   1.407       .  A
C1067      C1074   1.520       .  S
C1068      C1069   1.400       .  A
C1068      H1073   1.083       .  S
C1069      C1070   1.414       .  A
C1070      C1071   1.517       .  S
C1071      F1075   1.384       .  S
C1071      F1076   1.383       .  S
C1071      F1077   1.383       .  S
C1074      F1078   1.384       .  S
C1074      F1079   1.382       .  S
C1074      F1080   1.384       .  S
C1081      C1082   1.400       .  A
C1081      C1086   1.407       .  A
C1081      H1088   1.083       .  S
C1082      C1083   1.415       .  A
C1083      C1084   1.406       .  A
C1083      C1090   1.520       .  S
C1084      C1085   1.408       .  A
C1084      H1089   1.083       .  S
C1085      C1086   1.424       .  A
C1086      C1087   1.521       .  S
C1087      F1091   1.384       .  S
C1087      F1092   1.384       .  S
C1087      F1093   1.383       .  S
C1090      F1094   1.381       .  S
C1090      F1095   1.384       .  S
C1090      F1096   1.384       .  S
C1097      C1098   1.404       .  A
C1097      C1102   1.410       .  A
C1097      H1104   1.083       .  S
C1098      C1099   1.415       .  A
C1099      C1100   1.401       .  A
C1099      C1106   1.522       .  S
C1100      C1101   1.409       .  A
C1100      H1105   1.082       .  S
C1101      C1102   1.426       .  A
C1102      C1103   1.522       .  S
C1103      F1107   1.383       .  S
C1103      F1108   1.385       .  S
C1103      F1109   1.382       .  S
C1106      F1110   1.381       .  S
C1106      F1111   1.383       .  S
C1106      F1112   1.385       .  S
C1113      C1114   1.398       .  A
C1113      C1118   1.405       .  A
C1113      H1120   1.083       .  S
C1114      C1115   1.414       .  A
C1115      C1116   1.406       .  A
C1115      C1122   1.520       .  S
C1116      C1117   1.408       .  A
C1116      H1121   1.082       .  S
C1117      C1118   1.425       .  A
C1118      C1119   1.521       .  S
C1119      F1123   1.385       .  S
C1119      F1124   1.384       .  S
C1119      F1125   1.383       .  S
C1122      F1126   1.382       .  S
C1122      F1127   1.384       .  S
C1122      F1128   1.384       .  S
C1129      C1130   1.408       .  A
C1129      C1134   1.407       .  A
C1129      H1136   1.082       .  S
C1130      C1131   1.423       .  A
C1131      C1132   1.410       .  A
C1131      C1138   1.517       .  S
C1132      C1133   1.402       .  A
C1132      H1137   1.083       .  S
C1133      C1134   1.414       .  A
C1134      C1135   1.519       .  S
C1135      F1139   1.385       .  S
C1135      F1140   1.384       .  S
C1135      F1141   1.381       .  S
C1138      F1142   1.383       .  S
C1138      F1143   1.382       .  S
C1138      F1144   1.385       .  S
C1145      C1146   1.411       .  A
C1145      C1150   1.407       .  A
C1145      H1152   1.081       .  S
C1146      C1147   1.428       .  A
C1147      C1148   1.411       .  A
C1147      C1154   1.521       .  S
C1148      C1149   1.402       .  A
C1148      H1153   1.083       .  S
C1149      C1150   1.416       .  A
C1150      C1151   1.521       .  S
C1151      F1155   1.385       .  S
C1151      F1156   1.383       .  S
C1151      F1157   1.381       .  S
C1154      F1158   1.383       .  S
C1154      F1159   1.381       .  S
C1154      F1160   1.385       .  S
C1161      C1162   1.401       .  A
C1161      C1166   1.408       .  A
C1161      H1168   1.083       .  S
C1162      C1163   1.413       .  A
C1163      C1164   1.404       .  A
C1163      C1170   1.518       .  S
C1164      C1165   1.404       .  A
C1164      H1169   1.083       .  S
C1165      C1166   1.420       .  A
C1166      C1167   1.520       .  S
C1167      F1171   1.385       .  S
C1167      F1172   1.382       .  S
C1167      F1173   1.383       .  S
C1170      F1174   1.383       .  S
C1170      F1175   1.382       .  S
C1170      F1176   1.385       .  S
C1177      C1178   1.401       .  A
C1177      C1182   1.409       .  A
C1177      H1184   1.083       .  S
C1178      C1179   1.419       .  A
C1179      C1180   1.409       .  A
C1179      C1186   1.521       .  S
C1180      C1181   1.410       .  A
C1180      H1185   1.082       .  S
C1181      C1182   1.428       .  A
C1182      C1183   1.522       .  S
C1183      F1187   1.385       .  S
C1183      F1188   1.384       .  S
C1183      F1189   1.383       .  S
C1186      F1190   1.383       .  S
C1186      F1191   1.381       .  S
C1186      F1192   1.385       .  S
C1193      C1194   1.401       .  A
C1193      C1198   1.409       .  A
C1193      H1200   1.083       .  S
C1194      C1195   1.414       .  A
C1195      C1196   1.406       .  A
C1195      C1202   1.518       .  S
C1196      C1197   1.405       .  A
C1196      H1201   1.083       .  S
C1197      C1198   1.421       .  A
C1198      C1199   1.518       .  S
C1199      F1203   1.384       .  S
C1199      F1204   1.382       .  S
C1199      F1205   1.383       .  S
C1202      F1206   1.383       .  S
C1202      F1207   1.382       .  S
C1202      F1208   1.384       .  S
C1209      C1210   1.406       .  A
C1209      C1214   1.409       .  A
C1209      H1216   1.083       .  S
C1210      C1211   1.422       .  A
C1211      C1212   1.411       .  A
C1211      C1218   1.519       .  S
C1212      C1213   1.402       .  A
C1212      H1217   1.084       .  S
C1213      C1214   1.415       .  A
C1214      C1215   1.518       .  S
C1215      F1219   1.384       .  S
C1215      F1220   1.383       .  S
C1215      F1221   1.382       .  S
C1218      F1222   1.382       .  S
C1218      F1223   1.384       .  S
C1218      F1224   1.385       .  S
C1225      C1226   1.405       .  A
C1225      C1230   1.405       .  A
C1225      H1232   1.083       .  S
C1226      C1227   1.422       .  A
C1227      C1228   1.410       .  A
C1227      C1234   1.520       .  S
C1228      C1229   1.402       .  A
C1228      H1233   1.083       .  S
C1229      C1230   1.415       .  A
C1230      C1231   1.520       .  S
C1231      F1235   1.385       .  S
C1231      F1236   1.383       .  S
C1231      F1237   1.381       .  S
C1234      F1238   1.382       .  S
C1234      F1239   1.384       .  S
C1234      F1240   1.385       .  S
C1241      C1242   1.403       .  A
C1241      C1246   1.409       .  A
C1241      H1248   1.083       .  S
C1242      C1243   1.416       .  A
C1243      C1244   1.407       .  A
C1243      C1250   1.517       .  S
C1244      C1245   1.401       .  A
C1244      H1249   1.083       .  S
C1245      C1246   1.416       .  A
C1246      C1247   1.518       .  S
C1247      F1251   1.385       .  S
C1247      F1252   1.383       .  S
C1247      F1253   1.383       .  S
C1250      F1254   1.382       .  S
C1250      F1255   1.383       .  S
C1250      F1256   1.385       .  S
C1257      C1258   1.407       .  A
C1257      C1262   1.404       .  A
C1257      H1264   1.083       .  S
C1258      C1259   1.425       .  A
C1259      C1260   1.408       .  A
C1259      C1266   1.521       .  S
C1260      C1261   1.400       .  A
C1260      H1265   1.083       .  S
C1261      C1262   1.411       .  A
C1262      C1263   1.518       .  S
C1263      F1267   1.384       .  S
C1263      F1268   1.384       .  S
C1263      F1269   1.381       .  S
C1266      F1270   1.384       .  S
C1266      F1271   1.384       .  S
C1266      F1272   1.385       .  S
C1273      C1274   1.403       .  A
C1273      C1278   1.405       .  A
C1273      H1280   1.083       .  S
C1274      C1275   1.420       .  A
C1275      C1276   1.405       .  A
C1275      C1282   1.520       .  S
C1276      C1277   1.399       .  A
C1276      H1281   1.084       .  S
C1277      C1278   1.414       .  A
C1278      C1279   1.518       .  S
C1279      F1283   1.385       .  S
C1279      F1284   1.383       .  S
C1279      F1285   1.382       .  S
C1282      F1286   1.382       .  S
C1282      F1287   1.384       .  S
C1282      F1288   1.385       .  S
C1289      C1290   1.399       .  A
C1289      C1294   1.407       .  A
C1289      H1296   1.083       .  S
C1290      C1291   1.413       .  A
C1291      C1292   1.408       .  A
C1291      C1298   1.517       .  S
C1292      C1293   1.407       .  A
C1292      H1297   1.083       .  S
C1293      C1294   1.421       .  A
C1294      C1295   1.519       .  S
C1295      F1299   1.385       .  S
C1295      F1300   1.382       .  S
C1295      F1301   1.383       .  S
C1298      F1302   1.383       .  S
C1298      F1303   1.383       .  S
C1298      F1304   1.385       .  S
C1305      C1306   1.400       .  A
C1305      C1310   1.409       .  A
C1305      H1312   1.083       .  S
C1306      C1307   1.414       .  A
C1307      C1308   1.406       .  A
C1307      C1314   1.519       .  S
C1308      C1309   1.406       .  A
C1308      H1313   1.083       .  S
C1309      C1310   1.424       .  A
C1310      C1311   1.520       .  S
C1311      F1315   1.385       .  S
C1311      F1316   1.382       .  S
C1311      F1317   1.384       .  S
C1314      F1318   1.383       .  S
C1314      F1319   1.382       .  S
C1314      F1320   1.384       .  S
