geometry optimzed in LAMMPS
_audit_creation_date              2020-11-30 
_audit_creation_method            'lammps2cif' 
_symmetry_space_group_name_H-M    'P1' 
_symmetry_Int_Tables_number       1 
_symmetry_cell_setting            triclinic 
loop_ 
_symmetry_equiv_pos_as_xyz 
  x,y,z 
_cell_length_a                    25.9830216 
_cell_length_b                    25.960432566777147 
_cell_length_c                    26.021672837127845 
_cell_angle_alpha                 89.981998281842 
_cell_angle_beta                  90.06868562137471 
_cell_angle_gamma                 90.0297382666001 
loop_ 
_atom_site_label 
_atom_site_type_symbol 
_atom_site_fract_x 
_atom_site_fract_y 
_atom_site_fract_z 
_atom_site_charge 
N1          N  0.00176393  0.49487455  0.57869066    -0.36600
N2          N  0.00844083  0.57638893  0.50224968    -0.57200
N3          N  0.00140816  0.49905352  0.42147562    -0.36600
N4          N  0.99977130  0.41749520  0.49772125    -0.57200
C5          C  0.01257981  0.53542450  0.60948965     0.26900
C6          C  0.00836170  0.45163409  0.60690780     0.26900
C7          C  0.01335905  0.54137030  0.39359381     0.26900
C8          C  0.01014263  0.45745239  0.39134152     0.26900
C9          C  0.00261335  0.60571246  0.54479106     0.35600
C10         C  0.00155167  0.60802336  0.46152895     0.35600
C11         C  0.98986097  0.38683454  0.53846927     0.35600
C12         C  0.99023569  0.38904197  0.45531052     0.35600
C13         C  0.02547875  0.51779275  0.65813854    -0.21900
C14         C  0.02292217  0.46494886  0.65649980    -0.21900
C15         C  0.02986839  0.52647964  0.34513382    -0.21900
C16         C  0.02777790  0.47352057  0.34370332    -0.21900
C17         C  0.99323288  0.65642134  0.53105203    -0.23000
C18         C  0.99209464  0.65781330  0.47836138    -0.23000
C19         C  0.97452872  0.33845508  0.52188464    -0.23000
C20         C  0.97461584  0.33990335  0.46913614    -0.23000
C21         C  0.00778940  0.58794524  0.59590629    -0.18300
C22         C  0.99796868  0.40077149  0.59030109    -0.18300
C23         C  0.99884462  0.40574034  0.40438989    -0.18300
C24         C  0.00621207  0.59310189  0.40939909    -0.18300
H25         H  0.03506278  0.54059341  0.69162257     0.14600
H26         H  0.03001860  0.43937550  0.68858405     0.14600
H27         H  0.04148112  0.55126830  0.31376239     0.14600
H28         H  0.03734383  0.44961270  0.31101460     0.14600
H29         H  0.98770359  0.68906197  0.55631234     0.12900
H30         H  0.98534376  0.69178258  0.45522556     0.12900
H31         H  0.96480517  0.30540558  0.54530687     0.12900
H32         H  0.96496012  0.30821245  0.44387465     0.12900
H33         H  0.98498549  0.49682262  0.54259425     0.26100
H34         H  0.98202887  0.49899068  0.45632970     0.26100
O35         O  0.99839448  0.14329126  0.08403687    -0.80200
O36         O  0.99840969  0.84956728  0.08431881    -0.81700
O37         O  0.91313850  0.99498701  0.14470589    -0.78700
O38         O  0.08464458  0.99623160  0.14513866    -0.77100
O39         O  0.14739147  0.99325130  0.08355620    -0.78900
O40         O  0.85213812  0.99736107  0.08155577    -0.79800
O41         O  0.99911212  0.91249258  0.14571347    -0.81200
O42         O  0.99524270  0.08180070  0.14699919    -0.81500
Eu43       Eu  0.99889172  0.99721103  0.10392527     2.39200
O44         O  0.05115199  0.94430826  0.05238333    -0.89000
O45         O  0.94759466  0.04948106  0.05082591    -0.92600
C46         C  0.99623382  0.12912973  0.13154520     1.02100
C47         C  0.99824908  0.86484674  0.13160920     1.01900
C48         C  0.86579874  0.99557567  0.12919445     1.01900
C49         C  0.13223493  0.99416793  0.13071602     0.99700
H50         H  0.92497851  0.92391145  0.07212984     0.29500
O51         O  0.94675982  0.94538898  0.05096981    -1.01400
H52         H  0.07370254  0.07047139  0.07386995     0.29500
O53         O  0.05217510  0.04915832  0.05225891    -1.03900
O54         O  0.99745657  0.84978061  0.91579496    -0.81100
O55         O  0.00209959  0.14425586  0.91476688    -0.80700
O56         O  0.85227543  0.91388792  0.99812554    -0.79100
O57         O  0.14509420  0.91098989  0.99850162    -0.82400
O58         O  0.14747527  0.07947648  0.99961898    -0.80300
O59         O  0.85346707  0.08298369  0.00095987    -0.78900
O60         O  0.91709506  0.99956093  0.85100961    -0.80500
O61         O  0.08616129  0.00118682  0.85305337    -0.82400
O62         O  0.85425961  0.99869096  0.91252911    -0.79100
O63         O  0.14678236  0.00100581  0.91633979    -0.81800
O64         O  0.91392978  0.85137065  0.99858121    -0.77500
O65         O  0.91613631  0.14484005  0.00245010    -0.77600
O66         O  0.08595631  0.14205710  0.99946095    -0.77200
O67         O  0.08286001  0.84872296  0.00041490    -0.80700
O68         O  0.99845982  0.91164081  0.85324440    -0.80100
O69         O  0.00227904  0.08151466  0.85322371    -0.78500
Eu70       Eu  0.99903006  0.89246607  0.99970425     2.39800
Eu71       Eu  0.00040685  0.10156203  0.99938469     2.39600
Eu72       Eu  0.89544870  0.99799621  0.99787330     2.38400
Eu73       Eu  0.10376709  0.99589765  0.00002290     2.39900
Eu74       Eu  0.00084804  0.99686023  0.89477031     2.39800
O75         O  0.05233361  0.04861822  0.94788454    -0.92900
O76         O  0.94773342  0.94502724  0.94657972    -0.91800
C77         C  0.99731552  0.86425637  0.86835424     1.02300
C78         C  0.00278435  0.12909706  0.86743675     1.01000
C79         C  0.86655861  0.86625334  0.99857996     1.00400
C80         C  0.13026126  0.86358889  0.99914839     1.02400
C81         C  0.13331611  0.12710675  0.99921690     1.01300
C82         C  0.86855595  0.13038205  0.00295350     1.00200
C83         C  0.86952422  0.99966845  0.86529175     1.00200
C84         C  0.13343740  0.00296049  0.86866457     1.02800
H85         H  0.92708235  0.07201500  0.92472598     0.30200
O86         O  0.94826178  0.05008706  0.94611825    -1.05000
H87         H  0.07391995  0.92211038  0.92539940     0.32300
O88         O  0.05239502  0.94356858  0.94689814    -1.07600
N89         N  0.50149550  0.01920503  0.57778242    -0.36600
N90         N  0.57925563  0.01662453  0.49784818    -0.57200
N91         N  0.49852337  0.02085300  0.41976901    -0.36600
N92         N  0.42070735  0.01790742  0.49998114    -0.57200
C93         C  0.54377520  0.00831114  0.60622017     0.26900
C94         C  0.45986471  0.00948703  0.60740154     0.26900
C95         C  0.54002920  0.01013124  0.39021977     0.26900
C96         C  0.45602870  0.01003737  0.39149789     0.26900
C97         C  0.61028084  0.02349548  0.53903342     0.35600
C98         C  0.60878596  0.02423243  0.45581187     0.35600
C99         C  0.39145386  0.02609579  0.54209281     0.35600
C100        C  0.38969150  0.02518294  0.45887245     0.35600
C101        C  0.52883901  0.99181067  0.65464977    -0.21900
C102        C  0.47587528  0.99245934  0.65536998    -0.21900
C103        C  0.52366789  0.99327472  0.34232664    -0.21900
C104        C  0.47075071  0.99324153  0.34312934    -0.21900
C105        C  0.65982340  0.03512650  0.52311005    -0.23000
C106        C  0.65885061  0.03572523  0.47037893    -0.23000
C107        C  0.34158505  0.03853228  0.52763855    -0.23000
C108        C  0.34043410  0.03776238  0.47488862    -0.23000
C109        C  0.59538589  0.01602812  0.59070441    -0.18300
C110        C  0.40797156  0.01836748  0.59333469    -0.18300
C111        C  0.40429512  0.01699042  0.40724739    -0.18300
C112        C  0.59228828  0.01670057  0.40453519    -0.18300
H113        H  0.55352742  0.98096874  0.68638778     0.14600
H114        H  0.45190274  0.98212328  0.68776869     0.14600
H115        H  0.54737791  0.98204522  0.31005588     0.14600
H116        H  0.44593319  0.98219129  0.31156525     0.14600
H117        H  0.69331483  0.04185006  0.54696879     0.12900
H118        H  0.69147717  0.04297374  0.44558269     0.12900
H119        H  0.30917245  0.04641610  0.55251117     0.12900
H120        H  0.30704396  0.04506492  0.45106435     0.12900
H121        H  0.50111689  0.03794457  0.54255665     0.26100
H122        H  0.49920603  0.03924620  0.45517247     0.26100
N123        N  0.49723863  0.57602048  0.00287982    -0.36600
N124        N  0.57859285  0.49914703  0.00218569    -0.57200
N125        N  0.50134529  0.41850689  0.00680731    -0.36600
N126        N  0.41992413  0.49544033  0.00187783    -0.57200
C127        C  0.53822558  0.60537444  0.98981863     0.26900
C128        C  0.45450052  0.60377177  0.99230734     0.26900
C129        C  0.54417137  0.38998337  0.99899402     0.26900
C130        C  0.46046499  0.38796380  0.99648316     0.26900
C131        C  0.60743159  0.54194464  0.00874215     0.35600
C132        C  0.60948452  0.45870950  0.01298953     0.35600
C133        C  0.38857379  0.53633260  0.00903519     0.35600
C134        C  0.39059651  0.45290732  0.00808278     0.35600
C135        C  0.52131529  0.65239628  0.97096991    -0.21900
C136        C  0.46844065  0.65146123  0.97272998    -0.21900
C137        C  0.53034384  0.34051387  0.98436562    -0.21900
C138        C  0.47753776  0.33926114  0.98267786    -0.21900
C139        C  0.65698690  0.52863904  0.02340968    -0.23000
C140        C  0.65829644  0.47581841  0.02602127    -0.23000
C141        C  0.33892528  0.51972572  0.01932672    -0.23000
C142        C  0.34016959  0.46681731  0.01851662    -0.23000
C143        C  0.59039330  0.59262870  0.99874772    -0.18300
C144        C  0.40336318  0.58830378  0.00242240    -0.18300
C145        C  0.40812783  0.40173508  0.00198162    -0.18300
C146        C  0.59532718  0.40653353  0.00721432    -0.18300
H147        H  0.54468591  0.68442480  0.95813144     0.14600
H148        H  0.44313660  0.68251784  0.96123998     0.14600
H149        H  0.55564106  0.30846953  0.97608160     0.14600
H150        H  0.45435602  0.30602414  0.97287326     0.14600
H151        H  0.68897793  0.55425804  0.03099581     0.12900
H152        H  0.69150439  0.45262236  0.03577376     0.12900
H153        H  0.30517105  0.54324514  0.02583717     0.12900
H154        H  0.30762993  0.44149829  0.02461041     0.12900
H155        H  0.49840158  0.54195482  0.02378723     0.26100
H156        H  0.50004693  0.45470082  0.02361981     0.26100
C157        C  0.82546940  0.82612644  0.99879936    -0.19900
C158        C  0.83610440  0.77345132  0.00894726     0.36300
C159        C  0.79615351  0.73710496  0.00580254    -0.25900
C160        C  0.74560858  0.75219228  0.99496771     0.02800
C161        C  0.73428317  0.80455120  0.98694799     0.27600
C162        C  0.77430050  0.84090103  0.98844846    -0.25000
N163        N  0.88692691  0.75691495  0.02341062    -0.82400
H164        H  0.80413863  0.69678292  0.01310640     0.13400
C165        C  0.70465731  0.71264782  0.99414136     0.02700
N166        N  0.68217887  0.82049829  0.97729233    -0.81000
H167        H  0.76528935  0.88097476  0.98115030     0.18200
C168        C  0.66842616  0.71176732  0.03391637    -0.25800
C169        C  0.63107003  0.67302580  0.03671891     0.36200
C170        C  0.62917112  0.63480137  0.99787044    -0.19800
C171        C  0.66494440  0.63632986  0.95746929    -0.25100
C172        C  0.70303837  0.67472306  0.95546751     0.27600
H173        H  0.67022602  0.74061644  0.06397441     0.13400
N174        N  0.59723382  0.67283301  0.08042386    -0.82400
H175        H  0.66333522  0.60711133  0.92776940     0.18200
N176        N  0.74035748  0.67522772  0.91472465    -0.81000
H177        H  0.57351225  0.70522463  0.07759720     0.33800
H178        H  0.57330879  0.64058336  0.08110372     0.38300
H179        H  0.73408330  0.64446853  0.88955399     0.33800
H180        H  0.73475011  0.70896667  0.89349227     0.30500
H181        H  0.68020416  0.86046747  0.97272134     0.33800
H182        H  0.67070283  0.80426838  0.94234364     0.30500
H183        H  0.89505950  0.77296328  0.05938436     0.38400
H184        H  0.88815354  0.71695288  0.02828704     0.33800
C185        C  0.63647827  0.36688444  0.00707216    -0.19900
C186        C  0.66379129  0.35559528  0.96170956     0.36300
C187        C  0.70061116  0.31595395  0.96210053    -0.25900
C188        C  0.71051022  0.28776949  0.00702438     0.02800
C189        C  0.68276060  0.29873299  0.05224167     0.27600
C190        C  0.64595880  0.33840804  0.05186305    -0.25000
N191        N  0.65298948  0.38361936  0.91527888    -0.82400
H192        H  0.72185238  0.30705160  0.92741299     0.13400
C193        C  0.75036940  0.24701501  0.00630759     0.02700
N194        N  0.69183132  0.26915889  0.09806724    -0.81000
H195        H  0.62414251  0.34687006  0.08630645     0.18200
C196        C  0.79710576  0.25548081  0.03184203    -0.25800
C197        C  0.83611806  0.21791055  0.03189562     0.36200
C198        C  0.82819403  0.17092506  0.00537616    -0.19800
C199        C  0.78085121  0.16243286  0.98046755    -0.25100
C200        C  0.74193331  0.20006783  0.98057259     0.27600
H201        H  0.80304393  0.29161157  0.05185376     0.13400
N202        N  0.88327159  0.22707189  0.05942051    -0.82400
H203        H  0.77443868  0.12654897  0.96018574     0.18200
N204        N  0.69392396  0.19096376  0.95458401    -0.81000
H205        H  0.88305561  0.26363487  0.07626399     0.33800
H206        H  0.88507823  0.20049723  0.08958355     0.38300
H207        H  0.69390671  0.15463370  0.93724390     0.33800
H208        H  0.66490309  0.19037268  0.98237956     0.30500
H209        H  0.66833231  0.28211983  0.12797661     0.33800
H210        H  0.68084172  0.23116115  0.09045470     0.30500
H211        H  0.66405059  0.42188314  0.92116831     0.38400
H212        H  0.67548393  0.36974790  0.88501092     0.33800
C213        C  0.17051004  0.82335344  0.99890063    -0.19900
C214        C  0.21442866  0.82718994  0.96706587     0.36300
C215        C  0.25135394  0.78772960  0.96795549    -0.25900
C216        C  0.24581831  0.74522845  0.00062886     0.02800
C217        C  0.20222114  0.74132280  0.03253038     0.27600
C218        C  0.16469138  0.78024352  0.03099284    -0.25000
N219        N  0.22086969  0.87037644  0.93310630    -0.82400
H220        H  0.28503071  0.79035165  0.94355176     0.13400
C221        C  0.28600296  0.70490761  0.00076812     0.02700
N222        N  0.19631815  0.69782508  0.06621829    -0.81000
H223        H  0.13109452  0.77732325  0.05547909     0.18200
C224        C  0.31693720  0.69850768  0.04449864    -0.25800
C225        C  0.35580806  0.66091003  0.04571383     0.36200
C226        C  0.36283733  0.62861464  0.00271791    -0.19800
C227        C  0.33202784  0.63514763  0.95896316    -0.25100
C228        C  0.29377967  0.67330772  0.95742886     0.27600
H229        H  0.31101178  0.72332441  0.07744833     0.13400
N230        N  0.38771728  0.65491616  0.09049450    -0.82400
H231        H  0.33813044  0.61049101  0.92593787     0.18200
N232        N  0.26278338  0.68021081  0.91215582    -0.81000
H233        H  0.37674682  0.68095294  0.11910427     0.33800
H234        H  0.42534001  0.66472902  0.08019230     0.38300
H235        H  0.27368885  0.65415706  0.88354030     0.33800
H236        H  0.22476138  0.67135219  0.92186598     0.30500
H237        H  0.16229802  0.70094938  0.08741937     0.33800
H238        H  0.19258385  0.66495930  0.04330188     0.30500
H239        H  0.23011879  0.90213052  0.95595631     0.38400
H240        H  0.25253009  0.86473523  0.90898893     0.33800
C241        C  0.17465488  0.16698637  0.99840877    -0.19900
C242        C  0.16464051  0.21932716  0.98628798     0.36300
C243        C  0.20556654  0.25457330  0.98463478    -0.25900
C244        C  0.25620048  0.23933193  0.99507181     0.02800
C245        C  0.26653173  0.18747942  0.00723597     0.27600
C246        C  0.22576846  0.15193885  0.00879202    -0.25000
N247        N  0.11331540  0.23684460  0.97520246    -0.82400
H248        H  0.19777488  0.29469434  0.97615164     0.13400
C249        C  0.29729956  0.27900862  0.99515173     0.02700
N250        N  0.31836393  0.17111435  0.01771778    -0.81000
H251        H  0.23419577  0.11218758  0.01824776     0.18200
C252        C  0.32635615  0.28684040  0.03998538    -0.25800
C253        C  0.36270319  0.32674163  0.04292598     0.36200
C254        C  0.36948290  0.35968884  0.00046983    -0.19800
C255        C  0.34118436  0.35151425  0.95535540    -0.25100
C256        C  0.30545814  0.31104646  0.95203852     0.27600
H257        H  0.31986475  0.26240523  0.07311665     0.13400
N258        N  0.39289445  0.33403176  0.08867319    -0.82400
H259        H  0.34750689  0.37648538  0.92258271     0.18200
N260        N  0.27756036  0.30212855  0.90512533    -0.81000
H261        H  0.38373850  0.30611904  0.11616025     0.33800
H262        H  0.38275617  0.36966228  0.10439048     0.38300
H263        H  0.28798385  0.32912849  0.87718245     0.33200
H264        H  0.28861797  0.26604650  0.89112847     0.30500
H265        H  0.31939503  0.13179552  0.02638472     0.33800
H266        H  0.33972899  0.17608355  0.98405641     0.30500
H267        H  0.09304529  0.23714080  0.00988077     0.38400
H268        H  0.11369457  0.27500985  0.96234270     0.33800
C269        C  0.63639244  0.01524504  0.63063150    -0.19900
C270        C  0.64972061  0.06029911  0.65780227     0.36300
C271        C  0.68933494  0.05835965  0.69469535    -0.25900
C272        C  0.71546136  0.01215179  0.70479103     0.02800
C273        C  0.70241777  0.96727069  0.67716748     0.27600
C274        C  0.66289313  0.96924432  0.64030521    -0.25000
N275        N  0.62251256  0.10751405  0.64812508    -0.82400
H276        H  0.69943902  0.09267554  0.71616160     0.13400
C277        C  0.75501847  0.01033531  0.74585784     0.02700
N278        N  0.72946728  0.91994855  0.68681994    -0.81000
H279        H  0.65264260  0.93491043  0.61894397     0.18200
C280        C  0.74491036  0.98159325  0.79032441    -0.25800
C281        C  0.78177876  0.97700021  0.82961018     0.36200
C282        C  0.82975220  0.00217867  0.82441409    -0.19800
C283        C  0.83981374  0.03088712  0.77965969    -0.25100
C284        C  0.80283324  0.03535038  0.74037351     0.27600
H285        H  0.70813035  0.96225368  0.79407258     0.13400
N286        N  0.77099099  0.94607477  0.87418399    -0.82400
H287        H  0.87646814  0.05040092  0.77558048     0.18200
N288        N  0.81363204  0.06493991  0.69493349    -0.81000
H289        H  0.73387565  0.93060640  0.87215693     0.33800
H290        H  0.79641134  0.91486022  0.87387340     0.38300
H291        H  0.85041964  0.08116101  0.69704289     0.33800
H292        H  0.81397379  0.03954152  0.66375882     0.30500
H293        H  0.71505962  0.89042171  0.66357068     0.33800
H294        H  0.76783816  0.92549506  0.67607853     0.30500
H295        H  0.63023890  0.11855017  0.61026873     0.38400
H296        H  0.63656084  0.13695905  0.67169369     0.33800
C297        C  0.17510550  0.00780267  0.82910800    -0.19900
C298        C  0.22791345  0.01420211  0.84238027     0.36300
C299        C  0.26510443  0.01803814  0.80333698    -0.25900
C300        C  0.25130425  0.01613928  0.75139063     0.02800
C301        C  0.19901531  0.01155342  0.73782845     0.27600
C302        C  0.16162020  0.00715968  0.77661821    -0.25000
N303        N  0.24406502  0.01721415  0.89516323    -0.82400
H304        H  0.30542022  0.02157553  0.81349096     0.13400
C305        C  0.29215138  0.01733944  0.71150679     0.02700
N306        N  0.18414655  0.01158375  0.68458136    -0.81000
H307        H  0.12163156  0.00326185  0.76550492     0.18200
C308        C  0.29669588  0.97554085  0.67761096    -0.25800
C309        C  0.33453949  0.97500297  0.63915845     0.36200
C310        C  0.36831418  0.01718163  0.63445448    -0.19800
C311        C  0.36444493  0.05869556  0.66870409    -0.25100
C312        C  0.32653785  0.05927012  0.70725279     0.27600
H313        H  0.27071792  0.94310191  0.68143533     0.13400
N314        N  0.33879295  0.93202227  0.60461377    -0.82400
H315        H  0.39073562  0.09088428  0.66486454     0.18200
N316        N  0.32240904  0.10236737  0.74167545    -0.81000
H317        H  0.31082067  0.90429002  0.61292869     0.33800
H318        H  0.37451137  0.91466058  0.61112549     0.38300
H319        H  0.35065260  0.12986621  0.73348196     0.33800
H320        H  0.28686616  0.11999300  0.73492207     0.30500
H321        H  0.14423627  0.00792544  0.68092889     0.33800
H322        H  0.19386686  0.04754556  0.66929252     0.30500
H323        H  0.24056767  0.98034211  0.91078267     0.38400
H324        H  0.28311398  0.02664493  0.89775836     0.33800
C325        C  0.36291286  0.01296257  0.36771761    -0.19900
C326        C  0.35238207  0.05409600  0.33394933     0.36300
C327        C  0.31363950  0.04849169  0.29660231    -0.25900
C328        C  0.28518937  0.00270757  0.29253377     0.02800
C329        C  0.29479057  0.96202936  0.32716613     0.27600
C330        C  0.33386822  0.96745877  0.36431073    -0.25000
N331        N  0.38031342  0.10168656  0.33848935    -0.82400
H332        H  0.30563938  0.07986490  0.27030205     0.13400
C333        C  0.24496150  0.99864235  0.25215298     0.02700
N334        N  0.26446776  0.91576655  0.32476267    -0.81000
H335        H  0.34173710  0.93625257  0.39084317     0.18200
C336        C  0.25144929  0.96409323  0.21117344    -0.25800
C337        C  0.21556413  0.96191795  0.17053798     0.36200
C338        C  0.17200844  0.99465018  0.17157321    -0.19800
C339        C  0.16530846  0.02835693  0.21317265    -0.25100
C340        C  0.20122273  0.03062953  0.25344239     0.27600
H341        H  0.28508415  0.93943057  0.21053549     0.13400
N342        N  0.22237976  0.92552440  0.12943352    -0.82400
H343        H  0.13194361  0.05338165  0.21405690     0.18200
N344        N  0.19342140  0.06516275  0.29588401    -0.81000
H345        H  0.25410572  0.90183438  0.13669526     0.33800
H346        H  0.23136488  0.94628379  0.09622087     0.38300
H347        H  0.15954280  0.08631672  0.29088889     0.33800
H348        H  0.18824838  0.04270572  0.32884029     0.30500
H349        H  0.27633203  0.88965672  0.35299225     0.33800
H350        H  0.22647407  0.92569258  0.33350723     0.30500
H351        H  0.41864425  0.09440200  0.32880876     0.38400
H352        H  0.36671480  0.12862087  0.31186075     0.33800
C353        C  0.82437218  0.99508602  0.16898030    -0.19900
C354        C  0.77190475  0.98555052  0.15663657     0.36300
C355        C  0.73423553  0.98938523  0.19529343    -0.25900
C356        C  0.74769597  0.00141035  0.24599511     0.02800
C357        C  0.79965175  0.00967781  0.25876846     0.27600
C358        C  0.83742913  0.00613430  0.22035221    -0.25000
N359        N  0.75682479  0.97176998  0.10523161    -0.82400
H360        H  0.69412410  0.98259600  0.18601614     0.13400
C361        C  0.70704918  0.00533871  0.28566823     0.02700
N362        N  0.81365395  0.02251907  0.31067431    -0.81000
H363        H  0.87719491  0.01339131  0.23057170     0.18200
C364        C  0.70310439  0.96672363  0.32312370    -0.25800
C365        C  0.66583312  0.96968830  0.36209762     0.36200
C366        C  0.63225577  0.01235547  0.36373163    -0.19800
C367        C  0.63618422  0.05097986  0.32619574    -0.25100
C368        C  0.67348246  0.04795865  0.28717271     0.27600
H369        H  0.72919127  0.93419618  0.32179392     0.13400
N370        N  0.66198586  0.92979946  0.40023396    -0.82400
H371        H  0.61029539  0.08365487  0.32770340     0.18200
N372        N  0.67784397  0.08810045  0.24936534    -0.81000
H373        H  0.68971592  0.90134610  0.39387183     0.33800
H374        H  0.62609293  0.91211164  0.39583419     0.38300
H375        H  0.65024949  0.11667318  0.25581238     0.33800
H376        H  0.71378526  0.10558393  0.25422394     0.30500
H377        H  0.85348959  0.02725498  0.31389807     0.33800
H378        H  0.79715393  0.05823155  0.31921450     0.30500
H379        H  0.77264494  0.93561294  0.09725823     0.38400
H380        H  0.71688745  0.96749881  0.10261599     0.33800
C381        C  0.00300351  0.16905261  0.82641988    -0.19900
C382        C  0.01999578  0.15806747  0.77581257     0.36300
C383        C  0.01680126  0.19634656  0.73787017    -0.25900
C384        C  0.99819417  0.24561281  0.74927859     0.02800
C385        C  0.98168180  0.25703470  0.79954139     0.27600
C386        C  0.98429964  0.21867841  0.83761231    -0.25000
N387        N  0.04114611  0.10849445  0.76306849    -0.82400
H388        H  0.02950432  0.18798038  0.69910021     0.13400
C389        C  0.99817769  0.28521422  0.70831127     0.02700
N390        N  0.96247098  0.30751327  0.81167908    -0.81000
H391        H  0.97104998  0.22749982  0.87607274     0.18200
C392        C  0.95143765  0.30671989  0.69180740    -0.25800
C393        C  0.95044392  0.34402605  0.65266429     0.36200
C394        C  0.99699602  0.35960188  0.62976086    -0.19800
C395        C  0.04358305  0.33768127  0.64570866    -0.25100
C396        C  0.04469910  0.30077763  0.68507440     0.27600
H397        H  0.91578984  0.29420864  0.70942509     0.13400
N398        N  0.90254310  0.36583782  0.63560787    -0.82400
H399        H  0.07915947  0.35019653  0.62793739     0.18200
N400        N  0.09284009  0.27935053  0.70200783    -0.81000
H401        H  0.87175494  0.34974227  0.65586800     0.33800
H402        H  0.90308966  0.40508524  0.64459062     0.38300
H403        H  0.12339331  0.29467039  0.68081007     0.33800
H404        H  0.09850848  0.29075033  0.74013185     0.30500
H405        H  0.95155902  0.30953687  0.85028877     0.33800
H406        H  0.99272710  0.33363947  0.80689462     0.30500
H407        H  0.07565037  0.10444771  0.78339726     0.38400
H408        H  0.05062333  0.10659307  0.72406864     0.33800
C409        C  0.99723998  0.82309646  0.82884108    -0.19900
C410        C  0.97194793  0.82884109  0.78100552     0.36300
C411        C  0.97418790  0.78862685  0.74493245    -0.25900
C412        C  0.00024072  0.74257257  0.75583496     0.02800
C413        C  0.02397337  0.73607600  0.80411029     0.27600
C414        C  0.02252524  0.77648864  0.83993023    -0.25000
N415        N  0.94238808  0.87432803  0.76986531    -0.82400
H416        H  0.95568242  0.79327111  0.70787637     0.13400
C417        C  0.00211215  0.70151523  0.71621767     0.02700
N418        N  0.04896338  0.68829405  0.81670135    -0.81000
H419        H  0.04151049  0.77160964  0.87671595     0.18200
C420        C  0.04997357  0.68447590  0.69790797    -0.25800
C421        C  0.05329700  0.64728620  0.65901433     0.36200
C422        C  0.00744492  0.62666521  0.63793428    -0.19800
C423        C  0.95967267  0.64312005  0.65676080    -0.25100
C424        C  0.95649970  0.68036919  0.69571444     0.27600
H425        H  0.08508318  0.70089125  0.71339063     0.13400
N426        N  0.10356304  0.63215084  0.64153697    -0.82400
H427        H  0.92474083  0.62692738  0.64067017     0.18200
N428        N  0.90721247  0.69687554  0.71458540    -0.81000
H429        H  0.12224252  0.61412318  0.67227501     0.33800
H430        H  0.10159036  0.60514405  0.61192470     0.38300
H431        H  0.87748777  0.67784324  0.69523558     0.33800
H432        H  0.90473032  0.68590130  0.75316777     0.30500
H433        H  0.06451524  0.68976932  0.85375688     0.33800
H434        H  0.02076495  0.65954838  0.81717742     0.30500
H435        H  0.96829471  0.90434999  0.76304907     0.38400
H436        H  0.92163854  0.86966358  0.73572527     0.33800
C437        C  0.99709632  0.82504964  0.17279820    -0.19900
C438        C  0.97664340  0.83582869  0.22215610     0.36300
C439        C  0.97906209  0.79807184  0.26083567    -0.25900
C440        C  0.99999070  0.74944859  0.25092875     0.02800
C441        C  0.01886225  0.73784540  0.20160331     0.27600
C442        C  0.01726419  0.77572898  0.16296617    -0.25000
N443        N  0.95260455  0.88460631  0.23265329    -0.82400
H444        H  0.96395368  0.80627095  0.29876420     0.13400
C445        C  0.00145361  0.71057944  0.29244760     0.02700
N446        N  0.03960941  0.68760671  0.19113033    -0.81000
H447        H  0.03269037  0.76694393  0.12531135     0.18200
C448        C  0.96318012  0.67261053  0.29429680    -0.25800
C449        C  0.96407040  0.63440038  0.33238860     0.36200
C450        C  0.00411393  0.63375400  0.36896453    -0.19800
C451        C  0.04239628  0.67190324  0.36712203    -0.25100
C452        C  0.04125212  0.71061134  0.32930699     0.27600
H453        H  0.93250857  0.67268808  0.26603019     0.13400
N454        N  0.92418258  0.59633427  0.33406562    -0.82400
H455        H  0.07317427  0.67131769  0.39525043     0.18200
N456        N  0.08019612  0.74992904  0.32808818    -0.81000
H457        H  0.92402354  0.57678455  0.29893745     0.33800
H458        H  0.88892784  0.61533505  0.33785596     0.38300
H459        H  0.10636883  0.74477764  0.35820240     0.33800
H460        H  0.10096087  0.74545436  0.29399118     0.30500
H461        H  0.05152916  0.68502332  0.15285350     0.33800
H462        H  0.07256609  0.68301743  0.21375704     0.30500
H463        H  0.91967373  0.88712699  0.20963065     0.38400
H464        H  0.94001933  0.88636712  0.27075903     0.33800
C465        C  0.99648137  0.36669741  0.36256593    -0.19900
C466        C  0.95204487  0.36013176  0.33160584     0.36300
C467        C  0.95152038  0.32140780  0.29398062    -0.25900
C468        C  0.99419511  0.28925202  0.28650400     0.02800
C469        C  0.03845312  0.29581568  0.31719361     0.27600
C470        C  0.03919841  0.33458827  0.35488197    -0.25000
N471        N  0.90655674  0.39104249  0.33789858    -0.82400
H472        H  0.91748366  0.31628133  0.27040770     0.13400
C473        C  0.99247015  0.24877115  0.24632645     0.02700
N474        N  0.08222006  0.26271635  0.31013363    -0.81000
H475        H  0.07300933  0.33958441  0.37879781     0.18200
C476        C  0.02318867  0.25435848  0.20249608    -0.25800
C477        C  0.02495482  0.21579624  0.16466637     0.36200
C478        C  0.99533880  0.17048631  0.17089942    -0.19800
C479        C  0.96428673  0.16507988  0.21480437    -0.25100
C480        C  0.96229795  0.20403908  0.25245229     0.27600
H481        H  0.04633081  0.28882501  0.19814821     0.13400
N482        N  0.05753069  0.22207285  0.12044843    -0.82400
H483        H  0.94117852  0.13062891  0.21946606     0.18200
N484        N  0.93002723  0.19838554  0.29693914    -0.81000
H485        H  0.07628520  0.25770400  0.12143781     0.33800
H486        H  0.08620529  0.19388575  0.12232337     0.38300
H487        H  0.90998500  0.16347966  0.29552105     0.33800
H488        H  0.95398243  0.19664548  0.32920797     0.30500
H489        H  0.11172226  0.27265304  0.33563827     0.33800
H490        H  0.07087560  0.22525868  0.31963477     0.30500
H491        H  0.91035551  0.41753990  0.36778812     0.38400
H492        H  0.90156586  0.41240534  0.30419406     0.33800
loop_ 
_geom_bond_atom_site_label_1 
_geom_bond_atom_site_label_2 
_geom_bond_distance 
_geom_bond_site_symmetry_2 
_ccdc_geom_bond_type 
N1            C6   1.352       .  A
N1            C5   1.352       .  A
N1           H33   1.036   1_455  S
N2            C9   1.352       .  A
N2           C10   1.352       .  A
N3            C8   1.354       .  A
N3            C7   1.353       .  A
N3           H34   1.038   1_455  S
N4           C11   1.351       .  A
N4           C12   1.351       .  A
C5           C13   1.387       .  A
C5           C21   1.414       .  A
C6           C22   1.415   1_455  A
C6           C14   1.388       .  A
C7           C15   1.388       .  A
C7           C24   1.417       .  A
C8           C23   1.415   1_455  A
C8           C16   1.386       .  A
C9           C21   1.414       .  A
C9           C17   1.386   1_455  A
C10          C24   1.416       .  A
C10          C18   1.387   1_455  A
C11          C19   1.386       .  A
C11          C22   1.412       .  A
C12          C20   1.386       .  A
C12          C23   1.412       .  A
C13          C14   1.374       .  A
C13          H25   1.082       .  S
C14          H26   1.082       .  S
C15          C16   1.376       .  A
C15          H27   1.082       .  S
C16          H28   1.082       .  S
C17          C18   1.372       .  A
C17          H29   1.082       .  S
C18          H30   1.082       .  S
C19          C20   1.373       .  A
C19          H31   1.082       .  S
C20          H32   1.082       .  S
C21         C422   1.486       .  S
C22         C394   1.482       .  S
C23         C465   1.489       .  S
C24         C450   1.491       .  S
O35          C46   1.291       .  A
O35         Eu71   2.456   1_654  S
O36          C47   1.293       .  A
O36         Eu70   2.467   1_554  S
O37          C48   1.294       .  A
O37         Eu43   2.470       .  S
O38          C49   1.294       .  A
O38         Eu43   2.472   1_455  S
O39          C49   1.289       .  A
O39         Eu73   2.451       .  S
O40          C48   1.290       .  A
O40         Eu72   2.452   1_554  S
O41          C47   1.290       .  A
O41         Eu43   2.453       .  S
O42          C46   1.293       .  A
O42         Eu43   2.468   1_545  S
Eu43         O53   2.355   1_665  S
Eu43         O45   2.350   1_565  S
Eu43         O44   2.353   1_655  S
Eu43         O51   2.353       .  S
O44         Eu73   2.350       .  S
O44         Eu70   2.349   1_454  S
O45         Eu71   2.346   1_654  S
O45         Eu72   2.349   1_544  S
C46         C478   1.484       .  S
C47         C437   1.489       .  S
C48         C353   1.494       .  S
C49         C338   1.482       .  S
H50          O51   0.967       .  S
O51         Eu72   2.355   1_554  S
O51         Eu70   2.349   1_554  S
H52          O53   0.967       .  S
O53         Eu71   2.356   1_554  S
O53         Eu73   2.359   1_545  S
O54          C77   1.290       .  A
O54         Eu70   2.449       .  S
O55          C78   1.293       .  A
O55         Eu71   2.465       .  S
O56          C79   1.291       .  A
O56         Eu72   2.454       .  S
O57          C80   1.289       .  A
O57         Eu73   2.453   1_556  S
O58          C81   1.290       .  A
O58         Eu73   2.448   1_546  S
O59          C82   1.292       .  A
O59         Eu72   2.463   1_544  S
O60          C83   1.291       .  A
O60         Eu74   2.456   1_655  S
O61          C84   1.294       .  A
O61         Eu74   2.472   1_545  S
O62          C83   1.292       .  A
O62         Eu72   2.464       .  S
O63          C84   1.289       .  A
O63         Eu73   2.452   1_546  S
O64          C79   1.290       .  A
O64         Eu70   2.455       .  S
O65          C82   1.292       .  A
O65         Eu71   2.463   1_654  S
O66          C81   1.291       .  A
O66         Eu71   2.458       .  S
O67          C80   1.291   1_554  A
O67         Eu70   2.457   1_454  S
O68          C77   1.292       .  A
O68         Eu74   2.463   1_655  S
O69          C78   1.290       .  A
O69         Eu74   2.449   1_545  S
Eu70         O88   2.361   1_655  S
Eu70         O76   2.355       .  S
Eu71         O75   2.348       .  S
Eu71         O86   2.353   1_455  S
Eu72         O86   2.351   1_565  S
Eu72         O76   2.351       .  S
Eu73         O75   2.344   1_564  S
Eu73         O88   2.352   1_554  S
Eu74         O75   2.345   1_565  S
Eu74         O86   2.360   1_465  S
Eu74         O88   2.355       .  S
Eu74         O76   2.352   1_455  S
C77         C409   1.483       .  S
C78         C381   1.488       .  S
C79         C157   1.491       .  S
C80         C213   1.478       .  S
C81         C241   1.492       .  S
C82         C198   1.488       .  S
C83         C282   1.484   1_565  S
C84         C297   1.500       .  S
H85          O86   0.968       .  S
H87          O88   0.968       .  S
N89          C94   1.353       .  A
N89          C93   1.354       .  A
N89         H121   1.038       .  S
N90          C97   1.352       .  A
N90          C98   1.351       .  A
N91          C96   1.355       .  A
N91          C95   1.354       .  A
N91         H122   1.038       .  S
N92          C99   1.351       .  A
N92         C100   1.352       .  A
C93         C101   1.387   1_545  A
C93         C109   1.415       .  A
C94         C110   1.416       .  A
C94         C102   1.387   1_545  A
C95         C103   1.387   1_545  A
C95         C112   1.418       .  A
C96         C111   1.417       .  A
C96         C104   1.386   1_545  A
C97         C109   1.413       .  A
C97         C105   1.386       .  A
C98         C112   1.415       .  A
C98         C106   1.387       .  A
C99         C107   1.387       .  A
C99         C110   1.415       .  A
C100        C108   1.386       .  A
C100        C111   1.413       .  A
C101        C102   1.376       .  A
C101        H113   1.082       .  S
C102        H114   1.082       .  S
C103        C104   1.375       .  A
C103        H115   1.082       .  S
C104        H116   1.082       .  S
C105        C106   1.372       .  A
C105        H117   1.082       .  S
C106        H118   1.082       .  S
C107        C108   1.373       .  A
C107        H119   1.082       .  S
C108        H120   1.082       .  S
C109        C269   1.487       .  S
C110        C310   1.487       .  S
C111        C325   1.491       .  S
C112        C366   1.490       .  S
N123        C128   1.352   1_554  A
N123        C127   1.353   1_554  A
N123        H155   1.039       .  S
N124        C131   1.351       .  A
N124        C132   1.351       .  A
N125        C130   1.352   1_554  A
N125        C129   1.353   1_554  A
N125        H156   1.037       .  S
N126        C133   1.352       .  A
N126        C134   1.351       .  A
C127        C135   1.387       .  A
C127        C143   1.414       .  A
C128        C144   1.413   1_556  A
C128        C136   1.387       .  A
C129        C137   1.387       .  A
C129        C146   1.413   1_556  A
C130        C145   1.414   1_556  A
C130        C138   1.388       .  A
C131        C143   1.412   1_554  A
C131        C139   1.386       .  A
C132        C146   1.411       .  A
C132        C140   1.385       .  A
C133        C141   1.386       .  A
C133        C144   1.413       .  A
C134        C142   1.386       .  A
C134        C145   1.414       .  A
C135        C136   1.375       .  A
C135        H147   1.082       .  S
C136        H148   1.082       .  S
C137        C138   1.373       .  A
C137        H149   1.082       .  S
C138        H150   1.082       .  S
C139        C140   1.373       .  A
C139        H151   1.082       .  S
C140        H152   1.082       .  S
C141        C142   1.374       .  A
C141        H153   1.082       .  S
C142        H154   1.082       .  S
C143        C170   1.488       .  S
C144        C226   1.485       .  S
C145        C254   1.483       .  S
C146        C185   1.485       .  S
C157        C158   1.420   1_556  A
C157        C162   1.410       .  A
C158        C159   1.405       .  A
C158        N163   1.438       .  S
C159        C160   1.399   1_554  A
C159        H164   1.084       .  S
C160        C161   1.406       .  A
C160        C165   1.478       .  S
C161        C162   1.404       .  A
C161        N166   1.438       .  S
C162        H167   1.083       .  S
N163        H183   1.046       .  S
N163        H184   1.046       .  S
C165        C168   1.400   1_556  A
C165        C172   1.409       .  A
N166        H181   1.046       .  S
N166        H182   1.045       .  S
C168        C169   1.399       .  A
C168        H173   1.084       .  S
C169        C170   1.418   1_554  A
C169        N174   1.438       .  S
C170        C171   1.405       .  A
C171        C172   1.405       .  A
C171        H175   1.084       .  S
C172        N176   1.438       .  S
N174        H177   1.045       .  S
N174        H178   1.043       .  S
N176        H179   1.046       .  S
N176        H180   1.046       .  S
C185        C186   1.409   1_554  A
C185        C190   1.402       .  A
C186        C187   1.405       .  A
C186        N191   1.438       .  S
C187        C188   1.402   1_556  A
C187        H192   1.084       .  S
C188        C189   1.410       .  A
C188        C193   1.481       .  S
C189        C190   1.406       .  A
C189        N194   1.437       .  S
C190        H195   1.084       .  S
N191        H211   1.045       .  S
N191        H212   1.046       .  S
C193        C196   1.401       .  A
C193        C200   1.408   1_554  A
N194        H209   1.046       .  S
N194        H210   1.046       .  S
C196        C197   1.407       .  A
C196        H201   1.084       .  S
C197        C198   1.416       .  A
C197        N202   1.438       .  S
C198        C199   1.407   1_554  A
C199        C200   1.406       .  A
C199        H203   1.084       .  S
C200        N204   1.438       .  S
N202        H205   1.046       .  S
N202        H206   1.046       .  S
N204        H207   1.046       .  S
N204        H208   1.046       .  S
C213        C214   1.414       .  A
C213        C218   1.404   1_556  A
C214        C215   1.404       .  A
C214        N219   1.437       .  S
C215        C216   1.400   1_556  A
C215        H220   1.084       .  S
C216        C217   1.409       .  A
C216        C221   1.479       .  S
C217        C218   1.405       .  A
C217        N222   1.438       .  S
C218        H223   1.084       .  S
N219        H239   1.044       .  S
N219        H240   1.046       .  S
C221        C224   1.402       .  A
C221        C228   1.410   1_554  A
N222        H237   1.046       .  S
N222        H238   1.046       .  S
C224        C225   1.405       .  A
C224        H229   1.084       .  S
C225        C226   1.410       .  A
C225        N230   1.438       .  S
C226        C227   1.401   1_554  A
C227        C228   1.404       .  A
C227        H231   1.084       .  S
C228        N232   1.437       .  S
N230        H233   1.046       .  S
N230        H234   1.045       .  S
N232        H235   1.046       .  S
N232        H236   1.045       .  S
C241        C242   1.419       .  A
C241        C246   1.410   1_556  A
C242        C243   1.403       .  A
C242        N247   1.438       .  S
C243        C244   1.400       .  A
C243        H248   1.084       .  S
C244        C245   1.409   1_556  A
C244        C249   1.483       .  S
C245        C246   1.405       .  A
C245        N250   1.438       .  S
C246        H251   1.083       .  S
N247        H267   1.045   1_556  S
N247        H268   1.046       .  S
C249        C252   1.404   1_556  A
C249        C256   1.412       .  A
N250        H265   1.046       .  S
N250        H266   1.046   1_554  S
C252        C253   1.403       .  A
C252        H257   1.084       .  S
C253        C254   1.408       .  A
C253        N258   1.437       .  S
C254        C255   1.401   1_554  A
C255        C256   1.404       .  A
C255        H259   1.084       .  S
C256        N260   1.438       .  S
N258        H261   1.046       .  S
N258        H262   1.045       .  S
N260        H263   1.046       .  S
N260        H264   1.046       .  S
C269        C270   1.410       .  A
C269        C274   1.401   1_545  A
C270        C271   1.408       .  A
C270        N275   1.437       .  S
C271        C272   1.403       .  A
C271        H276   1.084       .  S
C272        C273   1.410   1_545  A
C272        C277   1.483       .  S
C273        C274   1.405       .  A
C273        N278   1.438       .  S
C274        H279   1.084       .  S
N275        H295   1.045       .  S
N275        H296   1.046       .  S
C277        C280   1.402   1_545  A
C277        C284   1.409       .  A
N278        H293   1.046       .  S
N278        H294   1.046       .  S
C280        C281   1.405       .  A
C280        H285   1.084       .  S
C281        C282   1.414   1_565  A
C281        N286   1.438       .  S
C282        C283   1.407       .  A
C283        C284   1.407       .  A
C283        H287   1.084       .  S
C284        N288   1.438       .  S
N286        H289   1.046       .  S
N286        H290   1.046       .  S
N288        H291   1.046       .  S
N288        H292   1.046       .  S
C297        C298   1.424       .  A
C297        C302   1.410       .  A
C298        C299   1.406       .  A
C298        N303   1.438       .  S
C299        C300   1.399       .  A
C299        H304   1.084       .  S
C300        C301   1.408       .  A
C300        C305   1.486       .  S
C301        C302   1.406       .  A
C301        N306   1.438       .  S
C302        H307   1.083       .  S
N303        H323   1.044   1_545  S
N303        H324   1.046       .  S
C305        C308   1.404   1_545  A
C305        C312   1.412       .  A
N306        H321   1.045       .  S
N306        H322   1.046       .  S
C308        C309   1.404       .  A
C308        H313   1.084       .  S
C309        C310   1.408   1_565  A
C309        N314   1.437       .  S
C310        C311   1.402       .  A
C311        C312   1.407       .  A
C311        H315   1.084       .  S
C312        N316   1.438       .  S
N314        H317   1.046       .  S
N314        H318   1.046       .  S
N316        H319   1.046       .  S
N316        H320   1.046       .  S
C325        C326   1.409       .  A
C325        C330   1.404   1_545  A
C326        C327   1.406       .  A
C326        N331   1.437       .  S
C327        C328   1.403       .  A
C327        H332   1.084       .  S
C328        C329   1.410   1_545  A
C328        C333   1.485   1_545  S
C329        C330   1.408       .  A
C329        N334   1.437       .  S
C330        H335   1.084       .  S
N331        H351   1.045       .  S
N331        H352   1.046       .  S
C333        C336   1.404       .  A
C333        C340   1.408   1_565  A
N334        H349   1.046       .  S
N334        H350   1.046       .  S
C336        C337   1.410       .  A
C336        H341   1.084       .  S
C337        C338   1.416       .  A
C337        N342   1.439       .  S
C338        C339   1.403   1_565  A
C339        C340   1.404       .  A
C339        H343   1.084       .  S
C340        N344   1.437       .  S
N342        H345   1.046       .  S
N342        H346   1.045       .  S
N344        H347   1.046       .  S
N344        H348   1.046       .  S
C353        C354   1.422       .  A
C353        C358   1.408   1_565  A
C354        C355   1.408       .  A
C354        N359   1.439       .  S
C355        C356   1.400   1_565  A
C355        H360   1.084       .  S
C356        C357   1.406       .  A
C356        C361   1.481       .  S
C357        C358   1.405       .  A
C357        N362   1.438       .  S
C358        H363   1.083       .  S
N359        H379   1.046       .  S
N359        H380   1.046       .  S
C361        C364   1.402   1_545  A
C361        C368   1.410       .  A
N362        H377   1.046       .  S
N362        H378   1.046       .  S
C364        C365   1.405       .  A
C364        H369   1.084       .  S
C365        C366   1.411   1_565  A
C365        N370   1.438       .  S
C366        C367   1.403       .  A
C367        C368   1.407       .  A
C367        H371   1.084       .  S
C368        N372   1.437       .  S
N370        H373   1.046       .  S
N370        H374   1.045       .  S
N372        H375   1.046       .  S
N372        H376   1.046       .  S
C381        C382   1.419       .  A
C381        C386   1.408   1_455  A
C382        C383   1.403       .  A
C382        N387   1.439       .  S
C383        C384   1.400   1_455  A
C383        H388   1.084       .  S
C384        C385   1.409       .  A
C384        C389   1.481       .  S
C385        C386   1.406       .  A
C385        N390   1.438       .  S
C386        H391   1.083       .  S
N387        H407   1.046       .  S
N387        H408   1.046       .  S
C389        C392   1.404       .  A
C389        C396   1.411   1_655  A
N390        H405   1.046       .  S
N390        H406   1.046       .  S
C392        C393   1.406       .  A
C392        H397   1.084       .  S
C393        C394   1.408       .  A
C393        N398   1.437       .  S
C394        C395   1.400   1_655  A
C395        C396   1.403       .  A
C395        H399   1.084       .  S
C396        N400   1.438       .  S
N398        H401   1.045       .  S
N398        H402   1.046       .  S
N400        H403   1.046       .  S
N400        H404   1.046       .  S
C409        C410   1.415       .  A
C409        C414   1.407   1_655  A
C410        C411   1.405       .  A
C410        N415   1.438       .  S
C411        C412   1.403   1_655  A
C411        H416   1.084       .  S
C412        C413   1.409       .  A
C412        C417   1.484       .  S
C413        C414   1.404       .  A
C413        N418   1.438       .  S
C414        H419   1.084       .  S
N415        H435   1.045       .  S
N415        H436   1.046       .  S
C417        C420   1.404       .  A
C417        C424   1.410   1_455  A
N418        H433   1.046       .  S
N418        H434   1.046       .  S
C420        C421   1.402       .  A
C420        H425   1.084       .  S
C421        C422   1.416       .  A
C421        N426   1.438       .  S
C422        C423   1.402   1_455  A
C423        C424   1.404       .  A
C423        H427   1.084       .  S
C424        N428   1.438       .  S
N426        H429   1.046       .  S
N426        H430   1.043       .  S
N428        H431   1.045       .  S
N428        H432   1.046       .  S
C437        C438   1.419       .  A
C437        C442   1.407   1_655  A
C438        C439   1.406       .  A
C438        N443   1.439       .  S
C439        C440   1.399       .  A
C439        H444   1.084       .  S
C440        C441   1.407   1_655  A
C440        C445   1.479   1_655  S
C441        C442   1.407       .  A
C441        N446   1.438       .  S
C442        H447   1.083       .  S
N443        H463   1.046       .  S
N443        H464   1.045       .  S
C445        C448   1.401   1_455  A
C445        C452   1.410       .  A
N446        H461   1.046       .  S
N446        H462   1.045       .  S
C448        C449   1.402       .  A
C448        H453   1.084       .  S
C449        C450   1.409   1_655  A
C449        N454   1.432       .  S
C450        C451   1.404       .  A
C451        C452   1.407       .  A
C451        H455   1.084       .  S
C452        N456   1.437       .  S
N454        H457   1.046       .  S
N454        H458   1.045       .  S
N456        H459   1.046       .  S
N456        H460   1.046       .  S
C465        C466   1.417       .  A
C465        C470   1.403   1_655  A
C466        C467   1.404       .  A
C466        N471   1.438       .  S
C467        C468   1.402       .  A
C467        H472   1.084       .  S
C468        C469   1.410   1_655  A
C468        C473   1.483       .  S
C469        C470   1.406       .  A
C469        N474   1.438       .  S
C470        H475   1.084       .  S
N471        H491   1.043       .  S
N471        H492   1.046       .  S
C473        C476   1.400   1_655  A
C473        C480   1.410       .  A
N474        H489   1.046       .  S
N474        H490   1.046       .  S
C476        C477   1.405       .  A
C476        H481   1.084       .  S
C477        C478   1.415   1_455  A
C477        N482   1.438       .  S
C478        C479   1.406       .  A
C479        C480   1.409       .  A
C479        H483   1.084       .  S
C480        N484   1.438       .  S
N482        H485   1.046       .  S
N482        H486   1.046       .  S
N484        H487   1.046       .  S
N484        H488   1.046       .  S
