geometry optimzed in LAMMPS
_audit_creation_date              2020-11-30 
_audit_creation_method            'lammps2cif' 
_symmetry_space_group_name_H-M    'P1' 
_symmetry_Int_Tables_number       1 
_symmetry_cell_setting            triclinic 
loop_ 
_symmetry_equiv_pos_as_xyz 
  x,y,z 
_cell_length_a                    39.90589959 
_cell_length_b                    32.72440687803574 
_cell_length_c                    29.27437048255545 
_cell_angle_alpha                 74.28076870545708 
_cell_angle_beta                  77.6756682771596 
_cell_angle_gamma                 89.78714625249413 
loop_ 
_atom_site_label 
_atom_site_type_symbol 
_atom_site_fract_x 
_atom_site_fract_y 
_atom_site_fract_z 
_atom_site_charge 
N1          N  0.44908084  0.00407031  0.99010499    -0.36700
N2          N  0.50030897  0.06492837  0.99384127    -0.57300
N3          N  0.04998600  0.50001649  0.99264954    -0.36700
N4          N  0.99912086  0.44032265  0.98413226    -0.57300
C5          C  0.43213910  0.04027608  0.98266955     0.26900
C6          C  0.43159693  0.47537292  0.97705394     0.26900
C7          C  0.07102832  0.03437056  0.98648273     0.26900
C8          C  0.07008291  0.46856895  0.98327964     0.26900
C9          C  0.47200780  0.08635755  0.00426888     0.35500
C10         C  0.02640456  0.08516631  0.00313834     0.35500
C11         C  0.47037676  0.41590461  0.99033998     0.35500
C12         C  0.02428199  0.41340892  0.99224140     0.35500
C13         C  0.40379006  0.03468654  0.96411113    -0.22000
C14         C  0.40337445  0.49361402  0.96075865    -0.22000
C15         C  0.10491344  0.02448529  0.97327542    -0.22000
C16         C  0.10432311  0.48301908  0.97135941    -0.22000
C17         C  0.48022011  0.12076779  0.01969175    -0.23000
C18         C  0.01482725  0.12020359  0.01859434    -0.23000
C19         C  0.47748105  0.37331203  0.00101984    -0.23000
C20         C  0.01177201  0.37173871  0.00207300    -0.23000
C21         C  0.43939973  0.07647120  0.99727950    -0.18400
C22         C  0.43814801  0.43188887  0.98496908    -0.18400
C23         C  0.05864632  0.42614921  0.98916981    -0.18400
C24         C  0.06076229  0.07329086  0.99606363    -0.18400
H25         H  0.38476661  0.05743513  0.95532975     0.14500
H26         H  0.38397368  0.47851314  0.94897671     0.14500
H27         H  0.12780143  0.04475956  0.96665651     0.14500
H28         H  0.12665449  0.46529795  0.96291031     0.14500
H29         H  0.46317208  0.14406269  0.03014040     0.12800
H30         H  0.02973114  0.14285433  0.02824642     0.12800
H31         H  0.45984926  0.34629370  0.00732047     0.12800
H32         H  0.02583863  0.34321310  0.00939823     0.12800
H33         H  0.46794812  0.99726120  0.01016877     0.26100
H34         H  0.02392709  0.49639321  0.00832701     0.26100
N35         N  0.44845536  0.99727301  0.26385809    -0.36700
N36         N  0.49796593  0.05949201  0.26932090    -0.57300
N37         N  0.05010441  0.49855048  0.25962052    -0.36700
N38         N  0.99938816  0.43520694  0.25848929    -0.57300
C39         C  0.42779722  0.02628887  0.27836149     0.26900
C40         C  0.42859570  0.46142931  0.27260374     0.26900
C41         C  0.06784352  0.02885600  0.26990330     0.26900
C42         C  0.06845128  0.46337410  0.26551595     0.26900
C43         C  0.47163072  0.08475182  0.26251827     0.35500
C44         C  0.02611151  0.08558430  0.26044907     0.35500
C45         C  0.47391053  0.41506790  0.24768880     0.35500
C46         C  0.02817412  0.41490020  0.24739840     0.35500
C47         C  0.39450637  0.00864876  0.29697551    -0.22000
C48         C  0.39504490  0.46753208  0.29367991    -0.22000
C49         C  0.09793907  0.01283051  0.28215033    -0.22000
C50         C  0.09829375  0.47153454  0.27948147    -0.22000
C51         C  0.48284580  0.12713126  0.25035897    -0.23000
C52         C  0.01748669  0.12765707  0.24924295    -0.23000
C53         C  0.48648882  0.38146744  0.23003416    -0.23000
C54         C  0.02091599  0.38111206  0.23030237    -0.23000
C55         C  0.43742050  0.06965706  0.26926541    -0.18400
C56         C  0.43920043  0.42546691  0.25645949    -0.18400
C57         C  0.06049059  0.42534507  0.25474506    -0.18400
C58         C  0.05912271  0.07162667  0.26435715    -0.18400
H59         H  0.37199617  0.02422541  0.31018996     0.14500
H60         H  0.37300763  0.44517712  0.30393490     0.14500
H61         H  0.11792447  0.02939263  0.29120307     0.14500
H62         H  0.11865905  0.45027073  0.28602415     0.14500
H63         H  0.46765279  0.15468180  0.24330560     0.12800
H64         H  0.03437613  0.15572238  0.24103966     0.12800
H65         H  0.47234660  0.35929905  0.21863177     0.12800
H66         H  0.03860870  0.35873573  0.21900423     0.12800
H67         H  0.47310466  0.00382615  0.24204394     0.26100
H68         H  0.02911542  0.50332170  0.24352372     0.26100
O69         O  0.19332698  0.33338920  0.02885748    -0.81000
O70         O  0.31725679  0.21128234  0.01391238    -0.65700
O71         O  0.24914150  0.29121434  0.48936218    -1.12300
C72         C  0.17739834  0.17706325  0.49683889     1.05900
O73         O  0.29879544  0.15911722  0.48673900    -0.78900
O74         O  0.26569328  0.21051948  0.42162102    -0.66500
Ni75       Ni  0.24203959  0.33200994  0.02564440     1.34900
C76         C  0.24728615  0.24077193  0.40614686     0.84600
O77         O  0.31836842  0.29469105  0.98567803    -0.79400
O78         O  0.29028417  0.33848769  0.02496805    -0.89700
C79         C  0.32167358  0.17701647  0.50014227     0.84200
O80         O  0.23361402  0.29043017  0.08690176    -0.67900
O81         O  0.20510371  0.16662848  0.47338642    -0.87200
C82         C  0.25249112  0.26046110  0.10104126     0.85000
C83         C  0.31785179  0.32655241  0.00251555     1.06600
H84         H  0.24035020  0.19401133  0.05285617     0.38400
O85         O  0.24595086  0.20836628  0.01843428    -1.09800
O86         O  0.22242774  0.25283608  0.43414605    -0.66500
Ni87       Ni  0.21275105  0.24895732  0.50329903     1.26300
O88         O  0.27565973  0.24746149  0.07165187    -0.66700
O89         O  0.17689630  0.20575129  0.51848625    -0.79000
C90         C  0.17271333  0.31984876  0.00788653     0.84400
O91         O  0.17965321  0.28998144  0.49003451    -0.66200
Ni92       Ni  0.25196202  0.16727161  0.48131251     1.27400
Ni93       Ni  0.28289629  0.25103505  0.00271807     1.26100
H94         H  0.25421527  0.30677941  0.45527292     0.39000
O95         O  0.19580338  0.33172445  0.28260803    -0.81000
O96         O  0.31618737  0.20612277  0.27234369    -0.65700
O97         O  0.25237061  0.29064603  0.24041570    -1.12300
C98         C  0.17871363  0.17692288  0.24778471     1.05900
O99         O  0.30263324  0.16434255  0.22964694    -0.78900
O100        O  0.26500889  0.20925233  0.16847060    -0.66500
Ni101      Ni  0.24506266  0.33339062  0.27509777     1.34900
C102        C  0.24732266  0.24033745  0.15364549     0.84600
O103        O  0.32162655  0.28985254  0.24631724    -0.79400
O104        O  0.29357223  0.34264212  0.26992460    -0.89700
C105        C  0.32239907  0.17569523  0.25336768     0.84200
O106        O  0.23884121  0.29477782  0.33848086    -0.67900
O107        O  0.20640830  0.16317554  0.22806319    -0.87200
C108        C  0.25389532  0.26122490  0.35364521     0.85000
C109        C  0.32111614  0.32528122  0.25629104     1.06600
H110        H  0.24040968  0.19335722  0.30108450     0.38400
O111        O  0.24742158  0.20869831  0.26702977    -1.09800
O112        O  0.22467566  0.25453931  0.18241158    -0.66500
Ni113      Ni  0.21494612  0.25028464  0.25139590     1.26300
O114        O  0.27417345  0.24392109  0.32559063    -0.66700
O115        O  0.17823433  0.20873467  0.26472651    -0.79000
C116        C  0.17632739  0.32136020  0.25799663     0.84400
O117        O  0.18343682  0.29295761  0.23616119    -0.66200
Ni118      Ni  0.25435642  0.16774726  0.23009255     1.27400
Ni119      Ni  0.28486033  0.24893701  0.25692521     1.26100
H120        H  0.25939611  0.30518018  0.20613829     0.39000
C121        C  0.14157883  0.37258783  0.21193374    -0.20400
C122        C  0.14420692  0.34312899  0.25565851    -0.07000
C123        C  0.11754901  0.33777014  0.29747525     0.13900
C124        C  0.08924059  0.36312363  0.29504232    -0.20500
C125        C  0.08767247  0.39450480  0.25224286    -0.07000
C126        C  0.11374928  0.39883441  0.20982291     0.13900
C127        C  0.11348976  0.43168198  0.16248902    -0.23800
H128        H  0.16213766  0.37655358  0.17988588     0.15200
H129        H  0.06896002  0.35988931  0.32722316     0.15200
C130        C  0.11919274  0.30564368  0.34468420    -0.23800
H131        H  0.11415305  0.41576197  0.13334588     0.05400
H132        H  0.13650244  0.45392979  0.15229830     0.08600
H133        H  0.09038885  0.45060765  0.16432545     0.08600
H134        H  0.14169442  0.31368422  0.35794324     0.10600
H135        H  0.12154608  0.27349835  0.33895477     0.08600
H136        H  0.09577981  0.30474905  0.37343680     0.05400
C137        C  0.40601682  0.35573680  0.28022565    -0.20400
C138        C  0.41220745  0.39753695  0.24994471    -0.07000
C139        C  0.39016913  0.41364122  0.21795763     0.13900
C140        C  0.36089606  0.38898359  0.22035527    -0.20500
C141        C  0.35395719  0.34792995  0.25210501    -0.07000
C142        C  0.37726537  0.33057124  0.28136811     0.13900
C143        C  0.37105590  0.28633705  0.31537142    -0.23800
H144        H  0.42303031  0.34337778  0.30443710     0.15200
H145        H  0.34322561  0.40199740  0.19737248     0.15200
C146        C  0.39650320  0.45688487  0.18142659    -0.23800
H147        H  0.39149834  0.27830344  0.33624120     0.05400
H148        H  0.37089515  0.26300406  0.29410153     0.08600
H149        H  0.34601921  0.28354487  0.34167012     0.08600
H150        H  0.42112625  0.47320009  0.18005000     0.08600
H151        H  0.37524677  0.47735967  0.19035900     0.08600
H152        H  0.39750823  0.45347728  0.14450441     0.05400
C153        C  0.39491469  0.11576981  0.30310432    -0.20400
C154        C  0.41025561  0.10046867  0.26372523    -0.07000
C155        C  0.39822323  0.11219229  0.22030281     0.13900
C156        C  0.37038641  0.13815115  0.21764984    -0.20500
C157        C  0.35405045  0.15252393  0.25744739    -0.07000
C158        C  0.36674545  0.14158847  0.30067883     0.13900
C159        C  0.34972075  0.15484666  0.34518602    -0.23800
H160        H  0.40432753  0.10624414  0.33633808     0.15200
H161        H  0.36088620  0.14666509  0.18444994     0.15200
C162        C  0.41450716  0.09686265  0.17692346    -0.23800
H163        H  0.36215714  0.14172652  0.37620663     0.05400
H164        H  0.32230177  0.14316886  0.35676785     0.08600
H165        H  0.35148559  0.18995256  0.33715314     0.08600
H166        H  0.41163567  0.06164678  0.18645472     0.08600
H167        H  0.44223780  0.10708630  0.16531177     0.08600
H168        H  0.40244295  0.10991424  0.14552043     0.05400
C169        C  0.10800171  0.12145570  0.21467559    -0.20400
C170        C  0.08679070  0.10334782  0.26064913    -0.07000
C171        C  0.09408268  0.11278279  0.30201028     0.13900
C172        C  0.12356421  0.13853807  0.29651416    -0.20500
C173        C  0.14591198  0.15458584  0.25083155    -0.07000
C174        C  0.13748601  0.14704706  0.20921118     0.13900
C175        C  0.15928342  0.16637901  0.15895437    -0.23800
H176        H  0.10194298  0.11444286  0.18310651     0.15200
H177        H  0.12988725  0.14463467  0.32838430     0.15200
C178        C  0.07193555  0.09516284  0.35235912    -0.23800
H179        H  0.14771619  0.15938009  0.13044272     0.05400
H180        H  0.18516241  0.15348724  0.15572118     0.08600
H181        H  0.16181437  0.20147291  0.15167932     0.08600
H182        H  0.08749733  0.07573330  0.37655174     0.08600
H183        H  0.04955716  0.07487193  0.35303486     0.08600
H184        H  0.06198291  0.12178810  0.36712717     0.05400
C185        C  0.13324693  0.35838110  0.46121241    -0.20400
C186        C  0.14031480  0.34142702  0.00514583    -0.07000
C187        C  0.11984430  0.35150053  0.04605497     0.13900
C188        C  0.09209799  0.37726458  0.03997413    -0.20500
C189        C  0.08445071  0.39336485  0.99413140    -0.07000
C190        C  0.10586490  0.38491421  0.45551064     0.13900
C191        C  0.10032791  0.40381564  0.40487863    -0.23800
H192        H  0.14962947  0.35231160  0.42933816     0.15200
H193        H  0.07701160  0.38630569  0.07080717     0.15200
C194        C  0.12689782  0.33494012  0.09626045    -0.23800
H195        H  0.12367751  0.42325819  0.38175871     0.05400
H196        H  0.09073757  0.36998025  0.89083818     0.08600
H197        H  0.07819149  0.42435071  0.40394105     0.08600
H198        H  0.15172141  0.34903629  0.09780386     0.08600
H199        H  0.12638833  0.29552809  0.60630322     0.08600
H200        H  0.10662998  0.34302896  0.12436760     0.05400
C201        C  0.40594589  0.38807407  0.45135167    -0.20400
C202        C  0.40886394  0.40176550  0.99058240    -0.07000
C203        C  0.38401297  0.38913868  0.03472239     0.13900
C204        C  0.35518357  0.36347848  0.03779549    -0.20500
C205        C  0.35040724  0.35038496  0.99765999    -0.07000
C206        C  0.37553964  0.36270529  0.95348565     0.13900
C207        C  0.37203154  0.35321999  0.40771198    -0.23800
H208        H  0.42494534  0.39920356  0.41749951     0.15200
H209        H  0.33594243  0.35406581  0.07159994     0.15200
C210        C  0.38764738  0.40338387  0.07833991    -0.23800
H211        H  0.39322984  0.36822704  0.37622093     0.05400
H212        H  0.34648266  0.36295453  0.89924186     0.08600
H213        H  0.37168698  0.31837901  0.41273368     0.08600
H214        H  0.38762844  0.43857262  0.06952484     0.08600
H215        H  0.41329855  0.38938150  0.59075316     0.08600
H216        H  0.36620796  0.39001470  0.11017598     0.05400
C217        C  0.41289422  0.14560605  0.46688623    -0.20400
C218        C  0.41154032  0.10595252  0.50124383    -0.07000
C219        C  0.38091906  0.09125760  0.04154929     0.13900
C220        C  0.35228857  0.11613671  0.04125693    -0.20500
C221        C  0.35385942  0.15557437  0.50300061    -0.07000
C222        C  0.38442533  0.17089665  0.46777219     0.13900
C223        C  0.38642452  0.21296536  0.42992813    -0.23800
H224        H  0.43585251  0.15602350  0.43833695     0.15200
H225        H  0.32863334  0.10459683  0.06809839     0.15200
C226        C  0.37780296  0.04975655  0.08085112    -0.23800
H227        H  0.41197389  0.21971926  0.40440477     0.05400
H228        H  0.38144668  0.23840971  0.95101954     0.08600
H229        H  0.36660344  0.21283436  0.40852682     0.08600
H230        H  0.40211265  0.03318519  0.07965465     0.08600
H231        H  0.35905053  0.02940638  0.57706157     0.08600
H232        H  0.37038584  0.05581882  0.11709789     0.05400
C233        C  0.10332129  0.13665309  0.45585491    -0.20400
C234        C  0.08782745  0.10491396  0.49801667    -0.07000
C235        C  0.09938569  0.09921965  0.04212642     0.13900
C236        C  0.12776221  0.12490845  0.04109086    -0.20500
C237        C  0.14497444  0.15540383  0.49748426    -0.07000
C238        C  0.13193964  0.16189071  0.45502394     0.13900
C239        C  0.14844838  0.19508693  0.40882864    -0.23800
H240        H  0.09371655  0.14064757  0.42309141     0.15200
H241        H  0.13737538  0.12092610  0.07387343     0.15200
C242        C  0.08279927  0.06780057  0.08976118    -0.23800
H243        H  0.13458159  0.19655808  0.37937260     0.05400
H244        H  0.17538130  0.18765581  0.39588759     0.08600
H245        H  0.14828085  0.22684298  0.41570804     0.08600
H246        H  0.07364046  0.08506424  0.11752200     0.08600
H247        H  0.06048962  0.04914362  0.08719870     0.08600
H248        H  0.10191587  0.04518582  0.10233540     0.05400
N249        N  0.44976005  0.00417515  0.48967592    -0.36700
N250        N  0.50085920  0.06626786  0.49145785    -0.57300
N251        N  0.05054457  0.50111213  0.49372040    -0.36700
N252        N  0.99983412  0.44016266  0.48731578    -0.57300
C253        C  0.43268822  0.04022511  0.48117209     0.26900
C254        C  0.43232716  0.47458614  0.47790934     0.26900
C255        C  0.07147052  0.03578513  0.48660106     0.26900
C256        C  0.07075995  0.46942023  0.48552490     0.26900
C257        C  0.47250757  0.08790765  0.50073320     0.35500
C258        C  0.02673683  0.08710680  0.50053390     0.35500
C259        C  0.47115708  0.41544521  0.49421524     0.35500
C260        C  0.02493800  0.41356242  0.49696265     0.35500
C261        C  0.40421742  0.03361719  0.46335132    -0.22000
C262        C  0.40394614  0.49212285  0.46141032    -0.22000
C263        C  0.10541326  0.02590479  0.47399015    -0.22000
C264        C  0.10497373  0.48407198  0.47337739    -0.22000
C265        C  0.48050000  0.12310240  0.51496924    -0.23000
C266        C  0.01501028  0.12275777  0.51449920    -0.23000
C267        C  0.47819164  0.37288184  0.50726600    -0.23000
C268        C  0.01237857  0.37167955  0.50890679    -0.23000
C269        C  0.43995288  0.07727622  0.49421204    -0.18400
C270        C  0.43911609  0.43105843  0.48706267    -0.18400
C271        C  0.05939266  0.42673004  0.49271650    -0.18400
C272        C  0.06101459  0.07507024  0.49484624    -0.18400
H273        H  0.38505361  0.05601185  0.45409307     0.14500
H274        H  0.38450296  0.47632052  0.45044687     0.14500
H275        H  0.12821638  0.04645769  0.46686916     0.14500
H276        H  0.12740374  0.46628901  0.46573497     0.14500
H277        H  0.46335737  0.14667656  0.52444684     0.12800
H278        H  0.02972710  0.14591034  0.52366094     0.12800
H279        H  0.46057664  0.34562359  0.51467496     0.12800
H280        H  0.02639540  0.34327716  0.51776978     0.12800
H281        H  0.46875978  0.99824696  0.50955523     0.26100
H282        H  0.02447226  0.49762091  0.50932669     0.26100
N283        N  0.45030571  0.99752606  0.76074082    -0.36700
N284        N  0.50147763  0.05842130  0.76390009    -0.57300
N285        N  0.05204945  0.49524057  0.75589132    -0.36700
N286        N  0.99983342  0.43327106  0.75670192    -0.57300
C287        C  0.43041989  0.02750542  0.77455071     0.26900
C288        C  0.42967463  0.46219055  0.77021134     0.26900
C289        C  0.07043347  0.02523070  0.76564987     0.26900
C290        C  0.06939705  0.45927571  0.76331251     0.26900
C291        C  0.47567417  0.08461412  0.75731083     0.35500
C292        C  0.03023562  0.08356636  0.75439522     0.35500
C293        C  0.47375450  0.41384734  0.74631892     0.35500
C294        C  0.02801497  0.41170475  0.74619020     0.35500
C295        C  0.39683299  0.01098605  0.79341257    -0.22000
C296        C  0.39640276  0.46960169  0.79105351    -0.22000
C297        C  0.09988438  0.00822165  0.77919348    -0.22000
C298        C  0.09921316  0.46661795  0.77778319    -0.22000
C299        C  0.48788142  0.12666462  0.74453702    -0.23000
C300        C  0.02258321  0.12599592  0.74283784    -0.23000
C301        C  0.48537158  0.37945669  0.72948489    -0.23000
C302        C  0.01978218  0.37788359  0.72983780    -0.23000
C303        C  0.44106281  0.07064249  0.76508462    -0.18400
C304        C  0.43932036  0.42550702  0.75494241    -0.18400
C305        C  0.06062799  0.42118451  0.75335698    -0.18400
C306        C  0.06285191  0.06844310  0.75870841    -0.18400
H307        H  0.37475846  0.02740205  0.80630048     0.14500
H308        H  0.37390229  0.44792275  0.80180808     0.14500
H309        H  0.12010638  0.02432716  0.78830795     0.14500
H310        H  0.11890560  0.44458424  0.78544289     0.14500
H311        H  0.47327861  0.15476106  0.73759969     0.12800
H312        H  0.04013008  0.15351325  0.73428025     0.12800
H313        H  0.47060548  0.35756350  0.71855309     0.12800
H314        H  0.03681357  0.35466721  0.71912384     0.12800
H315        H  0.47501590  0.00298183  0.73903643     0.26100
H316        H  0.03140964  0.50062324  0.73907351     0.26100
O317        O  0.19410693  0.33330112  0.53060755    -0.81000
O318        O  0.31827367  0.21219026  0.51038070    -0.65700
O319        O  0.24864660  0.29055652  0.98960443    -1.12300
C320        C  0.17718593  0.17601797  0.99726352     1.05900
O321        O  0.29882369  0.15892730  0.98821403    -0.78900
O322        O  0.26564590  0.20904719  0.92263603    -0.66500
Ni323      Ni  0.24298809  0.33195748  0.52630748     1.34900
C324        C  0.24734518  0.23918674  0.90662736     0.84600
O325        O  0.31911574  0.29563659  0.48351856    -0.79400
O326        O  0.29141097  0.33825552  0.52487449    -0.89700
C327        C  0.32122735  0.17653185  0.00276547     0.84200
O328        O  0.23518668  0.28951765  0.58669948    -0.67900
O329        O  0.20507030  0.16506100  0.97478006    -0.87200
C330        C  0.25453980  0.25982689  0.59981626     0.85000
C331        C  0.31885901  0.32675599  0.50159152     1.06600
H332        H  0.24149675  0.19444594  0.55168527     0.38400
O333        O  0.24667442  0.20896778  0.51730417    -1.09800
O334        O  0.22248614  0.25168039  0.93419465    -0.66500
Ni335      Ni  0.21222862  0.24840853  0.00320160     1.26300
O336        O  0.27760254  0.24753660  0.56970041    -0.66700
O337        O  0.17639253  0.20527585  0.01814948    -0.79000
C338        C  0.17334888  0.32011828  0.50955921     0.84400
O339        O  0.17925010  0.28946750  0.98879307    -0.66200
Ni340      Ni  0.25190068  0.16637824  0.98278358     1.27400
Ni341      Ni  0.28367801  0.25180023  0.50083506     1.26100
H342        H  0.25418359  0.30571609  0.95538717     0.39000
O343        O  0.19485488  0.32599247  0.78429740    -0.81000
O344        O  0.31792142  0.20500218  0.77280919    -0.65700
O345        O  0.25294204  0.28802047  0.74058620    -1.12300
C346        C  0.18240508  0.17311831  0.74396799     1.05900
O347        O  0.30659129  0.16478308  0.72710222    -0.78900
O348        O  0.26844068  0.20887686  0.66625420    -0.66500
Ni349      Ni  0.24421778  0.33079533  0.77503225     1.34900
C350        C  0.24991609  0.23920464  0.65205361     0.84600
O351        O  0.32168645  0.28877322  0.74889622    -0.79400
O352        O  0.29255795  0.34264414  0.76828699    -0.89700
C353        C  0.32551871  0.17583645  0.75211111     0.84200
O354        O  0.23971526  0.29317171  0.83862899    -0.67900
O355        O  0.21065976  0.16041589  0.72439857    -0.87200
C356        C  0.25411537  0.25913542  0.85401831     0.85000
C357        C  0.32044321  0.32504451  0.75689682     1.06600
H358        H  0.24238707  0.19005739  0.79921556     0.38400
O359        O  0.24956389  0.20613662  0.76543853    -1.09800
O360        O  0.22673283  0.25224522  0.68116691    -0.66500
Ni361      Ni  0.21640124  0.24691388  0.75019914     1.26300
O362        O  0.27377854  0.24099837  0.82622456    -0.66700
O363        O  0.18078082  0.20449563  0.76180886    -0.79000
C364        C  0.17609814  0.31641180  0.75831757     0.84400
O365        O  0.18416184  0.28892584  0.73535205    -0.66200
Ni366      Ni  0.25830425  0.16639953  0.72711418     1.27400
Ni367      Ni  0.28595132  0.24712015  0.75738214     1.26100
H368        H  0.26023007  0.30271442  0.70638666     0.39000
C369        C  0.14165237  0.36774907  0.71170618    -0.20400
C370        C  0.14389214  0.33809388  0.75549419    -0.07000
C371        C  0.11682279  0.33265267  0.79688177     0.13900
C372        C  0.08850802  0.35803157  0.79392254    -0.20500
C373        C  0.08735776  0.38964870  0.75109728    -0.07000
C374        C  0.11389101  0.39410112  0.70913916     0.13900
C375        C  0.11424152  0.42730980  0.66184395    -0.23800
H376        H  0.16251943  0.37187966  0.67999666     0.15200
H377        H  0.06794304  0.35472892  0.82578351     0.15200
C378        C  0.11803065  0.30041677  0.84419492    -0.23800
H379        H  0.11542531  0.41171831  0.63232154     0.05400
H380        H  0.13721244  0.44949721  0.65252776     0.08600
H381        H  0.09113909  0.44624460  0.66321633     0.08600
H382        H  0.14018509  0.30849309  0.85813082     0.10600
H383        H  0.12069641  0.26834071  0.83833101     0.08600
H384        H  0.09430553  0.29931125  0.87249379     0.05400
C385        C  0.40535746  0.35622529  0.78026663    -0.20400
C386        C  0.41156065  0.39789842  0.74964399    -0.07000
C387        C  0.38907770  0.41404660  0.71831284     0.13900
C388        C  0.35962634  0.38940045  0.72137070    -0.20500
C389        C  0.35293831  0.34828724  0.75305645    -0.07000
C390        C  0.37646116  0.33104819  0.78203969     0.13900
C391        C  0.37036057  0.28693835  0.81648300    -0.23800
H392        H  0.42261757  0.34388454  0.80410334     0.15200
H393        H  0.34177636  0.40233055  0.69864695     0.15200
C394        C  0.39520325  0.45721480  0.68160439    -0.23800
H395        H  0.39079820  0.27918036  0.83741742     0.05400
H396        H  0.37025038  0.26324226  0.79565714     0.08600
H397        H  0.34533611  0.28425881  0.84278083     0.08600
H398        H  0.42005381  0.47342667  0.67940413     0.08600
H399        H  0.37417258  0.47783400  0.69099083     0.08600
H400        H  0.39556371  0.45372502  0.64489205     0.05400
C401        C  0.39825533  0.11553096  0.80086334    -0.20400
C402        C  0.41449862  0.10239995  0.76021797    -0.07000
C403        C  0.40343727  0.11655297  0.71620972     0.13900
C404        C  0.37532923  0.14214223  0.71435863    -0.20500
C405        C  0.35782186  0.15388411  0.75548496    -0.07000
C406        C  0.36990038  0.14115156  0.79914870     0.13900
C407        C  0.35202874  0.15228807  0.84467780    -0.23800
H408        H  0.40699007  0.10428016  0.83449514     0.15200
H409        H  0.36640532  0.15221784  0.68076375     0.15200
C410        C  0.42084975  0.10383035  0.67146498    -0.23800
H411        H  0.36418575  0.13819482  0.87575345     0.05400
H412        H  0.32474143  0.14012285  0.85516133     0.08600
H413        H  0.35330837  0.18726389  0.83841533     0.08600
H414        H  0.41860760  0.06873031  0.67877413     0.08600
H415        H  0.44844066  0.11469629  0.66120446     0.08600
H416        H  0.40918095  0.11808743  0.63994534     0.05400
C417        C  0.11399035  0.11461233  0.70979548    -0.20400
C418        C  0.09112828  0.09923160  0.75501429    -0.07000
C419        C  0.09711625  0.11057139  0.79599635     0.13900
C420        C  0.12647087  0.13630225  0.79082877    -0.20500
C421        C  0.15025460  0.14996150  0.74609822    -0.07000
C422        C  0.14363044  0.13972732  0.70483601     0.13900
C423        C  0.16748106  0.15570738  0.65547380    -0.23800
H424        H  0.10905514  0.10585855  0.67856442     0.15200
H425        H  0.13155480  0.14424386  0.82243979     0.15200
C426        C  0.07379094  0.09493369  0.84580151    -0.23800
H427        H  0.15697866  0.14745139  0.62685063     0.05400
H428        H  0.19267340  0.14128917  0.65556484     0.08600
H429        H  0.17122997  0.19088093  0.64558255     0.08600
H430        H  0.08852290  0.07622033  0.87174608     0.08600
H431        H  0.05154549  0.07444938  0.84644680     0.08600
H432        H  0.06370153  0.12254205  0.85851872     0.05400
C433        C  0.13121005  0.35525383  0.95987181    -0.20400
C434        C  0.14111637  0.34193412  0.50696250    -0.07000
C435        C  0.11969195  0.34973574  0.54856236     0.13900
C436        C  0.09197143  0.37567167  0.54294028    -0.20500
C437        C  0.08542583  0.39421157  0.49683253    -0.07000
C438        C  0.10370285  0.38156163  0.95372291     0.13900
C439        C  0.09674779  0.39749564  0.90350530    -0.23800
H440        H  0.14673624  0.34736460  0.92854052     0.15200
H441        H  0.07603933  0.38288079  0.57442430     0.15200
C442        C  0.12580429  0.33061335  0.59890391    -0.23800
H443        H  0.11989935  0.41571889  0.87811581     0.05400
H444        H  0.09550240  0.37784175  0.38905088     0.08600
H445        H  0.07485287  0.41839408  0.90210075     0.08600
H446        H  0.15049951  0.34372032  0.60218140     0.08600
H447        H  0.12763357  0.29976475  0.10576327     0.08600
H448        H  0.10516558  0.33760239  0.62736869     0.05400
C449        C  0.40465099  0.38813375  0.95062218    -0.20400
C450        C  0.41020483  0.40054920  0.49204353    -0.07000
C451        C  0.38535411  0.38709945  0.53607704     0.13900
C452        C  0.35646576  0.36186180  0.53834470    -0.20500
C453        C  0.35156586  0.35006708  0.49744956    -0.07000
C454        C  0.37672802  0.36316034  0.45336703     0.13900
C455        C  0.37098992  0.35124429  0.90859870    -0.23800
H456        H  0.42370262  0.39855021  0.91672816     0.15200
H457        H  0.33721725  0.35188504  0.57209555     0.15200
C458        C  0.38893333  0.40035839  0.58031262    -0.23800
H459        H  0.39215877  0.36579566  0.87688365     0.05400
H460        H  0.34757500  0.36552955  0.39872968     0.08600
H461        H  0.37086139  0.31627141  0.91481077     0.08600
H462        H  0.38907185  0.43552089  0.57212358     0.08600
H463        H  0.41208916  0.39281491  0.08881273     0.08600
H464        H  0.36739453  0.38673080  0.61191980     0.05400
C465        C  0.41269162  0.14519135  0.97068887    -0.20400
C466        C  0.41109397  0.10528515  0.00468483    -0.07000
C467        C  0.38174643  0.09225389  0.53885344     0.13900
C468        C  0.35298439  0.11687787  0.53858750    -0.20500
C469        C  0.35343426  0.15512246  0.00603319    -0.07000
C470        C  0.38418052  0.17045553  0.97116665     0.13900
C471        C  0.38630672  0.21243380  0.93311368    -0.23800
H472        H  0.43581367  0.15570775  0.94247110     0.15200
H473        H  0.32953716  0.10551837  0.56593915     0.15200
C474        C  0.37930403  0.05155479  0.57918972    -0.23800
H475        H  0.41200878  0.21926686  0.90797762     0.05400
H476        H  0.38192426  0.23889223  0.44796760     0.08600
H477        H  0.36679620  0.21209087  0.91126236     0.08600
H478        H  0.40373873  0.03524175  0.57785560     0.08600
H479        H  0.35766191  0.02827189  0.07721146     0.08600
H480        H  0.37245157  0.05869935  0.61491537     0.05400
C481        C  0.10405205  0.13372471  0.95594657    -0.20400
C482        C  0.08787468  0.10308867  0.99873500    -0.07000
C483        C  0.09999784  0.09970904  0.54108836     0.13900
C484        C  0.12852553  0.12501146  0.54016736    -0.20500
C485        C  0.14486758  0.15413048  0.99783921    -0.07000
C486        C  0.13253395  0.15928421  0.95497573     0.13900
C487        C  0.14946240  0.19168432  0.90832890    -0.23800
H488        H  0.09496405  0.13671276  0.92291587     0.15200
H489        H  0.13878034  0.11969830  0.57249204     0.15200
C490        C  0.08393978  0.06727499  0.58823006    -0.23800
H491        H  0.13609526  0.19222708  0.87858050     0.05400
H492        H  0.17652568  0.18419883  0.89639809     0.08600
H493        H  0.14896494  0.22385478  0.91415717     0.08600
H494        H  0.07533005  0.08359622  0.61704033     0.08600
H495        H  0.06132026  0.04915950  0.58568142     0.08600
H496        H  0.10319870  0.04428291  0.59938560     0.05400
N497        N  0.44906951  0.50405963  0.99012256    -0.36700
N498        N  0.50030062  0.56491896  0.99384515    -0.57300
N499        N  0.04997748  0.00000730  0.99264762    -0.36700
N500        N  0.99910711  0.94030631  0.98416003    -0.57300
C501        C  0.43212927  0.54026658  0.98267995     0.26900
C502        C  0.43160948  0.97538716  0.97702934     0.26900
C503        C  0.07103457  0.53437783  0.98650185     0.26900
C504        C  0.07007177  0.96855627  0.98328288     0.26900
C505        C  0.47200047  0.58635063  0.00427081     0.35500
C506        C  0.02640643  0.58516840  0.00316409     0.35500
C507        C  0.47039143  0.91592091  0.99030118     0.35500
C508        C  0.02426641  0.91339236  0.99227936     0.35500
C509        C  0.40377975  0.53467417  0.96412392    -0.22000
C510        C  0.40338649  0.99362932  0.96073696    -0.22000
C511        C  0.10492094  0.52449435  0.97330064    -0.22000
C512        C  0.10431260  0.98300642  0.97134806    -0.22000
C513        C  0.48021405  0.62076033  0.01969368    -0.23000
C514        C  0.01482636  0.62020373  0.01862262    -0.23000
C515        C  0.47749784  0.87332925  0.00097075    -0.23000
C516        C  0.01175346  0.87172089  0.00213109    -0.23000
C517        C  0.43939179  0.57646564  0.99728209    -0.18400
C518        C  0.43816131  0.93190415  0.98493699    -0.18400
C519        C  0.05863261  0.92613411  0.98919226    -0.18400
C520        C  0.06076507  0.57329527  0.99608950    -0.18400
H521        H  0.38475719  0.55742288  0.95533848     0.14500
H522        H  0.38398650  0.97853081  0.94895121     0.14500
H523        H  0.12780777  0.54476734  0.96669428     0.14500
H524        H  0.12664261  0.96528299  0.96289951     0.14500
H525        H  0.46316706  0.64405634  0.03014179     0.12800
H526        H  0.02972823  0.64285393  0.02827853     0.12800
H527        H  0.45986765  0.84631108  0.00726372     0.12800
H528        H  0.02581839  0.84319478  0.00946760     0.12800
H529        H  0.46793738  0.49725300  0.01018578     0.26100
H530        H  0.02391994  0.99638592  0.00833492     0.26100
N531        N  0.44844984  0.49726605  0.26388293    -0.36700
N532        N  0.49795762  0.55948603  0.26935058    -0.57300
N533        N  0.05010129  0.99854913  0.25964298    -0.36700
N534        N  0.99938557  0.93520559  0.25850974    -0.57300
C535        C  0.42779076  0.52628290  0.27838203     0.26900
C536        C  0.42860025  0.96143780  0.27257544     0.26900
C537        C  0.06784696  0.52885910  0.26987760     0.26900
C538        C  0.06845088  0.96337494  0.26552771     0.26900
C539        C  0.47162287  0.58474595  0.26254449     0.35500
C540        C  0.02611783  0.58558934  0.26041017     0.35500
C541        C  0.47391377  0.91507311  0.24766672     0.35500
C542        C  0.02817230  0.91490278  0.24741001     0.35500
C543        C  0.39450014  0.50864238  0.29699642    -0.22000
C544        C  0.39504981  0.96754032  0.29365302    -0.22000
C545        C  0.09793991  0.51283259  0.28213292    -0.22000
C546        C  0.09829491  0.97153497  0.27948974    -0.22000
C547        C  0.48283686  0.62712531  0.25039093    -0.23000
C548        C  0.01749368  0.62766222  0.24919858    -0.23000
C549        C  0.48649171  0.88146949  0.23001802    -0.23000
C550        C  0.02091376  0.88111682  0.23031081    -0.23000
C551        C  0.43741364  0.56965143  0.26928365    -0.18400
C552        C  0.43920451  0.92547611  0.25642996    -0.18400
C553        C  0.06049018  0.92534834  0.25475168    -0.18400
C554        C  0.05912825  0.57163125  0.26432336    -0.18400
H555        H  0.37198943  0.52421961  0.31020800     0.14500
H556        H  0.37301209  0.94518626  0.30390622     0.14500
H557        H  0.11792483  0.52939531  0.29118588     0.14500
H558        H  0.11866239  0.95027265  0.28602415     0.14500
H559        H  0.46764394  0.65467581  0.24333635     0.12800
H560        H  0.03438366  0.65572759  0.24099170     0.12800
H561        H  0.47235001  0.85930165  0.21861417     0.12800
H562        H  0.03860694  0.85874395  0.21900539     0.12800
H563        H  0.47309915  0.50381954  0.24206876     0.26100
H564        H  0.02911023  0.00332097  0.24355057     0.26100
O565        O  0.19332793  0.83340616  0.02885603    -0.81000
O566        O  0.31726654  0.71131007  0.01389126    -0.65700
O567        O  0.24914700  0.79121567  0.48934694    -1.12300
C568        C  0.17740550  0.67706785  0.49681301     1.05900
O569        O  0.29880183  0.65912152  0.48671761    -0.78900
O570        O  0.26570223  0.71053016  0.42160061    -0.66500
Ni571      Ni  0.24204158  0.83202955  0.02563952     1.34900
C572        C  0.24729347  0.74078124  0.40612817     0.84600
O573        O  0.31836948  0.79471976  0.98565422    -0.79400
O574        O  0.29028778  0.83850894  0.02495793    -0.89700
C575        C  0.32167799  0.67701812  0.50012740     0.84200
O576        O  0.23361863  0.79044717  0.08689472    -0.67900
O577        O  0.20511126  0.66663677  0.47335715    -0.87200
C578        C  0.25249980  0.76048206  0.10103152     0.85000
C579        C  0.31785434  0.82657875  0.00249573     1.06600
H580        H  0.24035760  0.69403523  0.05286531     0.38400
O581        O  0.24595467  0.70838594  0.01844189    -1.09800
O582        O  0.22243336  0.75284128  0.43412817    -0.66500
Ni583      Ni  0.21275654  0.74895886  0.50328138     1.26300
O584        O  0.27567289  0.74749070  0.07163987    -0.66700
O585        O  0.17690287  0.70575234  0.51846548    -0.79000
C586        C  0.17271322  0.81986039  0.00789024     0.84400
O587        O  0.17965823  0.78998250  0.49001791    -0.66200
Ni588      Ni  0.25196908  0.66727748  0.48128736     1.27400
Ni589      Ni  0.28290016  0.75105867  0.00270794     1.26100
H590        H  0.25422185  0.80678177  0.45525732     0.39000
O591        O  0.19580194  0.83172681  0.28259882    -0.81000
O592        O  0.31619249  0.70613480  0.27232507    -0.65700
O593        O  0.25236953  0.79065165  0.24040256    -1.12300
C594        C  0.17871945  0.67692578  0.24776615     1.05900
O595        O  0.30263659  0.66434699  0.22963732    -0.78900
O596        O  0.26502095  0.70927225  0.16845733    -0.66500
Ni597      Ni  0.24506189  0.83339879  0.27508104     1.34900
C598        C  0.24732977  0.74035269  0.15363455     0.84600
O599        O  0.32162699  0.78986500  0.24629740    -0.79400
O600        O  0.29357198  0.84265661  0.26989926    -0.89700
C601        C  0.32240230  0.67570265  0.25335611     0.84200
O602        O  0.23884681  0.79478839  0.33846474    -0.67900
O603        O  0.20641551  0.66319055  0.22803114    -0.87200
C604        C  0.25390133  0.76123535  0.35362760     0.85000
C605        C  0.32111609  0.82529562  0.25626679     1.06600
H606        H  0.24041666  0.69336011  0.30107062     0.38400
O607        O  0.24742599  0.70870338  0.26701624    -1.09800
O608        O  0.22467476  0.75454273  0.18240246    -0.66500
Ni609      Ni  0.21494694  0.75028563  0.25138772     1.26300
O610        O  0.27417793  0.74393092  0.32557244    -0.66700
O611        O  0.17823824  0.70872975  0.26472173    -0.79000
C612        C  0.17632453  0.82135913  0.25799126     0.84400
O613        O  0.18343308  0.79295433  0.23615868    -0.66200
Ni614      Ni  0.25436203  0.66775782  0.23007199     1.27400
Ni615      Ni  0.28486270  0.74894616  0.25690822     1.26100
H616        H  0.25939308  0.80518534  0.20612460     0.39000
C617        C  0.14157643  0.87259042  0.21193144    -0.20400
C618        C  0.14420360  0.84312726  0.25565394    -0.07000
C619        C  0.11754511  0.83776538  0.29747050     0.13900
C620        C  0.08923821  0.86312168  0.29504080    -0.20500
C621        C  0.08767171  0.89450795  0.25224473    -0.07000
C622        C  0.11374756  0.89883853  0.20982347     0.13900
C623        C  0.11348692  0.93168712  0.16249082    -0.23800
H624        H  0.16213524  0.87655782  0.17988324     0.15200
H625        H  0.06895729  0.85988499  0.32722176     0.15200
C626        C  0.11918680  0.80563310  0.34467625    -0.23800
H627        H  0.11414818  0.91576769  0.13334755     0.05400
H628        H  0.13650007  0.95393426  0.15229884     0.08600
H629        H  0.09038628  0.95061319  0.16432987     0.08600
H630        H  0.14168924  0.81366780  0.35793741     0.10600
H631        H  0.12153743  0.77348947  0.33894144     0.08600
H632        H  0.09577417  0.80473822  0.37342948     0.05400
C633        C  0.40601613  0.85575018  0.28020264    -0.20400
C634        C  0.41221111  0.89754726  0.24991490    -0.07000
C635        C  0.39017457  0.91365122  0.21792503     0.13900
C636        C  0.36090003  0.88899517  0.22032386    -0.20500
C637        C  0.35395732  0.84794428  0.25207995    -0.07000
C638        C  0.37726242  0.83058707  0.28134886     0.13900
C639        C  0.37104672  0.78635762  0.31536349    -0.23800
H640        H  0.42302739  0.84339247  0.30441784     0.15200
H641        H  0.34323122  0.90200829  0.19733818     0.15200
C642        C  0.39651169  0.95689350  0.18139146    -0.23800
H643        H  0.39148674  0.77832502  0.33623792     0.05400
H644        H  0.37088390  0.76301811  0.29410231     0.08600
H645        H  0.34600923  0.78357439  0.34165834     0.08600
H646        H  0.42113482  0.97320767  0.18001664     0.08600
H647        H  0.37525588  0.97737032  0.19032010     0.08600
H648        H  0.39751851  0.95348429  0.14446975     0.05400
C649        C  0.39490726  0.61576889  0.30311199    -0.20400
C650        C  0.41024973  0.60046362  0.26373684    -0.07000
C651        C  0.39822176  0.61218673  0.22031080     0.13900
C652        C  0.37038783  0.63814965  0.21765023    -0.20500
C653        C  0.35405087  0.65252748  0.25744341    -0.07000
C654        C  0.36674086  0.64159152  0.30067887     0.13900
C655        C  0.34971340  0.65485347  0.34518223    -0.23800
H656        H  0.40431687  0.60624381  0.33634842     0.15200
H657        H  0.36089080  0.64666319  0.18444770     0.15200
C658        C  0.41450768  0.59685298  0.17693541    -0.23800
H659        H  0.36214555  0.64173211  0.37620702     0.05400
H660        H  0.32229349  0.64317955  0.35675900     0.08600
H661        H  0.35148123  0.68995948  0.33714716     0.08600
H662        H  0.41163375  0.56163712  0.18646957     0.08600
H663        H  0.44223896  0.60707355  0.16532766     0.08600
H664        H  0.40244679  0.60990430  0.14552893     0.05400
C665        C  0.10800999  0.62145991  0.21464722    -0.20400
C666        C  0.08679642  0.60335161  0.26061877    -0.07000
C667        C  0.09408705  0.61278379  0.30198228     0.13900
C668        C  0.12356947  0.63853627  0.29649055    -0.20500
C669        C  0.14591913  0.65458578  0.25080974    -0.07000
C670        C  0.13749461  0.64704971  0.20918706     0.13900
C671        C  0.15929324  0.66638449  0.15893193    -0.23800
H672        H  0.10195277  0.61444916  0.18307624     0.15200
H673        H  0.12989089  0.64463077  0.32836263     0.15200
C674        C  0.07193672  0.59516488  0.35232917    -0.23800
H675        H  0.14772465  0.65939323  0.13041800     0.05400
H676        H  0.18517077  0.65348852  0.15569683     0.08600
H677        H  0.16182756  0.70147767  0.15166207     0.08600
H678        H  0.08749530  0.57573151  0.37652404     0.08600
H679        H  0.04955689  0.57487815  0.35300108     0.08600
H680        H  0.06198600  0.62179080  0.36709734     0.05400
C681        C  0.13325214  0.85838548  0.46119400    -0.20400
C682        C  0.14031176  0.84143120  0.00515430    -0.07000
C683        C  0.11983948  0.85149678  0.04606709     0.13900
C684        C  0.09208780  0.87725217  0.03999187    -0.20500
C685        C  0.08443741  0.89335115  0.99415106    -0.07000
C686        C  0.10586924  0.88491784  0.45549524     0.13900
C687        C  0.10032868  0.90381793  0.40486502    -0.23800
H688        H  0.14963382  0.85231692  0.42931856     0.15200
H689        H  0.07700042  0.88628903  0.07082723     0.15200
C690        C  0.12689752  0.83493788  0.09627005    -0.23800
H691        H  0.12367694  0.92326162  0.38174243     0.05400
H692        H  0.09072748  0.86997104  0.89085466     0.08600
H693        H  0.07819117  0.92435133  0.40393022     0.08600
H694        H  0.15171952  0.84904021  0.09781051     0.08600
H695        H  0.12639519  0.79552548  0.60628176     0.08600
H696        H  0.10662897  0.84302128  0.12438047     0.05400
C697        C  0.40594282  0.88808943  0.45132679    -0.20400
C698        C  0.40887553  0.90178151  0.99055372    -0.07000
C699        C  0.38402507  0.88915829  0.03469474     0.13900
C700        C  0.35519178  0.86350360  0.03776995    -0.20500
C701        C  0.35041101  0.85041146  0.99763569    -0.07000
C702        C  0.37554284  0.86272808  0.95346031     0.13900
C703        C  0.37202356  0.85323567  0.40769235    -0.23800
H704        H  0.42493843  0.89922344  0.41747139     0.15200
H705        H  0.33595161  0.85409343  0.07157554     0.15200
C706        C  0.38766395  0.90340199  0.07831124    -0.23800
H707        H  0.39321706  0.86824899  0.37619708     0.05400
H708        H  0.34648215  0.86298044  0.89921983     0.08600
H709        H  0.37168276  0.81839540  0.41270860     0.08600
H710        H  0.38764794  0.93859087  0.06949601     0.08600
H711        H  0.41330921  0.88939219  0.59072585     0.08600
H712        H  0.36622493  0.89003521  0.11014863     0.05400
C713        C  0.41289722  0.64559849  0.46688822    -0.20400
C714        C  0.41153958  0.60594700  0.50125094    -0.07000
C715        C  0.38091206  0.59125985  0.04154925     0.13900
C716        C  0.35228465  0.61614453  0.04125795    -0.20500
C717        C  0.35386202  0.65557386  0.50299227    -0.07000
C718        C  0.38442977  0.67089159  0.46776619     0.13900
C719        C  0.38643246  0.71295805  0.42991684    -0.23800
H720        H  0.43585730  0.65601219  0.43834133     0.15200
H721        H  0.32862864  0.60460700  0.06809858     0.15200
C722        C  0.37779266  0.54975902  0.08085229    -0.23800
H723        H  0.41198281  0.71970821  0.40439573     0.05400
H724        H  0.38145871  0.73841952  0.95103246     0.08600
H725        H  0.36661284  0.71282635  0.40851344     0.08600
H726        H  0.40210034  0.53318343  0.07965644     0.08600
H727        H  0.35904163  0.52940875  0.57706880     0.08600
H728        H  0.37037759  0.55582278  0.11709848     0.05400
C729        C  0.10332773  0.63665360  0.45583244    -0.20400
C730        C  0.08783180  0.60491920  0.49799775    -0.07000
C731        C  0.09938466  0.59923529  0.04215065     0.13900
C732        C  0.12776068  0.62492667  0.04111194    -0.20500
C733        C  0.14498181  0.65540769  0.49745860    -0.07000
C734        C  0.13194770  0.66189041  0.45499812     0.13900
C735        C  0.14845813  0.69508219  0.40879983    -0.23800
H736        H  0.09372326  0.64064485  0.42306914     0.15200
H737        H  0.13737354  0.62094753  0.07389394     0.15200
C738        C  0.08279678  0.56782159  0.08978869    -0.23800
H739        H  0.13459121  0.69655149  0.37934438     0.05400
H740        H  0.17539043  0.68764790  0.39586058     0.08600
H741        H  0.14829271  0.72683998  0.41567456     0.08600
H742        H  0.07363520  0.58509034  0.11754369     0.08600
H743        H  0.06048873  0.54916113  0.08722739     0.08600
H744        H  0.10191318  0.54520973  0.10236983     0.05400
N745        N  0.44975752  0.50416460  0.48969881    -0.36700
N746        N  0.50085536  0.56625613  0.49148759    -0.57300
N747        N  0.05054615  0.00111089  0.49371916    -0.36700
N748        N  0.99983735  0.94015999  0.48731287    -0.57300
C749        C  0.43268666  0.54021504  0.48119073     0.26900
C750        C  0.43232972  0.97459784  0.47788445     0.26900
C751        C  0.07147069  0.53578679  0.48659454     0.26900
C752        C  0.07076297  0.96942177  0.48551848     0.26900
C753        C  0.47250373  0.58789731  0.50075690     0.35500
C754        C  0.02673969  0.58711313  0.50052002     0.35500
C755        C  0.47115796  0.91545468  0.49419347     0.35500
C756        C  0.02494261  0.91356167  0.49695824     0.35500
C757        C  0.40421642  0.53360604  0.46336914    -0.22000
C758        C  0.40394795  0.99213516  0.46138806    -0.22000
C759        C  0.10541269  0.52590369  0.47398467    -0.22000
C760        C  0.10497628  0.98407519  0.47337414    -0.22000
C761        C  0.48049424  0.62309139  0.51499555    -0.23000
C762        C  0.01501493  0.62276586  0.51448254    -0.23000
C763        C  0.47819032  0.87289066  0.50724721    -0.23000
C764        C  0.01238374  0.87167792  0.50890952    -0.23000
C765        C  0.43995100  0.57726774  0.49422799    -0.18400
C766        C  0.43911820  0.93106995  0.48703645    -0.18400
C767        C  0.05939752  0.92673153  0.49270641    -0.18400
C768        C  0.06101704  0.57507503  0.49483233    -0.18400
H769        H  0.38505333  0.55600074  0.45410770     0.14500
H770        H  0.38450437  0.97633365  0.45042448     0.14500
H771        H  0.12821669  0.54645633  0.46685848     0.14500
H772        H  0.12740717  0.96629413  0.46572978     0.14500
H773        H  0.46335121  0.64666669  0.52446903     0.12800
H774        H  0.02973313  0.64591917  0.52364107     0.12800
H775        H  0.46057463  0.84563349  0.51465397     0.12800
H776        H  0.02640150  0.84327654  0.51777414     0.12800
H777        H  0.46875726  0.49823708  0.50957866     0.26100
H778        H  0.02447329  0.99761731  0.50932479     0.26100
N779        N  0.45030203  0.49751350  0.76074465    -0.36700
N780        N  0.50147357  0.55841120  0.76389958    -0.57300
N781        N  0.05205034  0.99523143  0.75588955    -0.36700
N782        N  0.99983293  0.93325819  0.75670831    -0.57300
C783        C  0.43041474  0.52749509  0.77454658     0.26900
C784        C  0.42967765  0.96220411  0.77020500     0.26900
C785        C  0.07043190  0.52523610  0.76565892     0.26900
C786        C  0.06939719  0.95926637  0.76331802     0.26900
C787        C  0.47566892  0.58460311  0.75731510     0.35500
C788        C  0.03023394  0.58357209  0.75441424     0.35500
C789        C  0.47375602  0.91386375  0.74630475     0.35500
C790        C  0.02801495  0.91169060  0.74620219     0.35500
C791        C  0.39682727  0.51097687  0.79340387    -0.22000
C792        C  0.39640703  0.96961302  0.79105442    -0.22000
C793        C  0.09988262  0.50822463  0.77920086    -0.22000
C794        C  0.09921394  0.96661243  0.77778529    -0.22000
C795        C  0.48787363  0.62665384  0.74455152    -0.23000
C796        C  0.02258093  0.62600154  0.74285743    -0.23000
C797        C  0.48537289  0.87947489  0.72946706    -0.23000
C798        C  0.01978373  0.87786844  0.72985037    -0.23000
C799        C  0.44105820  0.57063147  0.76508453    -0.18400
C800        C  0.43932231  0.92552333  0.75492997    -0.18400
C801        C  0.06062756  0.92117164  0.75337030    -0.18400
C802        C  0.06285111  0.56844836  0.75872198    -0.18400
H803        H  0.37475177  0.52739413  0.80628596     0.14500
H804        H  0.37390647  0.94793425  0.80180887     0.14500
H805        H  0.12010413  0.52432721  0.78831970     0.14500
H806        H  0.11890620  0.94457945  0.78544893     0.14500
H807        H  0.47326951  0.65474959  0.73762002     0.12800
H808        H  0.04012800  0.65351903  0.73429753     0.12800
H809        H  0.47060700  0.85758459  0.71853088     0.12800
H810        H  0.03681588  0.85465162  0.71913923     0.12800
H811        H  0.47501360  0.50296732  0.73904456     0.26100
H812        H  0.03141015  0.00061059  0.73907232     0.26100
O813        O  0.19411402  0.83330671  0.53058466    -0.81000
O814        O  0.31827723  0.71219052  0.51036874    -0.65700
O815        O  0.24864685  0.79057581  0.98960110    -1.12300
C816        C  0.17718578  0.67603414  0.99727882     1.05900
O817        O  0.29881719  0.65893204  0.98824258    -0.78900
O818        O  0.26565046  0.70905844  0.92265266    -0.66500
Ni819      Ni  0.24299362  0.83195712  0.52629426     1.34900
C820        C  0.24734936  0.73919615  0.90663994     0.84600
O821        O  0.31912042  0.79563728  0.48350666    -0.79400
O822        O  0.29141552  0.83825072  0.52486956    -0.89700
C823        C  0.32122874  0.67654734  0.00276940     0.84200
O824        O  0.23518708  0.78951523  0.58668598    -0.67900
O825        O  0.20506935  0.66508342  0.97478670    -0.87200
C826        C  0.25454099  0.75982549  0.59980388     0.85000
C827        C  0.31886336  0.82675536  0.50158174     1.06600
H828        H  0.24150163  0.69444525  0.55166470     0.38400
O829        O  0.24667965  0.70896895  0.51728532    -1.09800
O830        O  0.22248721  0.75168874  0.93420385    -0.66500
Ni831      Ni  0.21223055  0.74842407  0.00320933     1.26300
O832        O  0.27760410  0.74753544  0.56968788    -0.66700
O833        O  0.17639467  0.70528829  0.01816946    -0.79000
C834        C  0.17335529  0.82012175  0.50953890     0.84400
O835        O  0.17925054  0.78947833  0.98879886    -0.66200
Ni836      Ni  0.25189790  0.66639201  0.98280028     1.27400
Ni837      Ni  0.28368267  0.75180105  0.50082089     1.26100
H838        H  0.25417967  0.80573515  0.95538284     0.39000
O839        O  0.19485544  0.82596755  0.78432661    -0.81000
O840        O  0.31792012  0.70499599  0.77283194    -0.65700
O841        O  0.25294903  0.78802010  0.74059401    -1.12300
C842        C  0.18241560  0.67311231  0.74396439     1.05900
O843        O  0.30660889  0.66481179  0.72707866    -0.78900
O844        O  0.26843906  0.70887170  0.66624152    -0.66500
Ni845      Ni  0.24421960  0.83079655  0.77503648     1.34900
C846        C  0.24991949  0.73920565  0.65204249     0.84600
O847        O  0.32168776  0.78876892  0.74893218    -0.79400
O848        O  0.29256028  0.84266289  0.76826612    -0.89700
C849        C  0.32552658  0.67584586  0.75211234     0.84200
O850        O  0.23973516  0.79318786  0.83863822    -0.67900
O851        O  0.21067111  0.66039793  0.72441311    -0.87200
C852        C  0.25412098  0.75914076  0.85403048     0.85000
C853        C  0.32044498  0.82505257  0.75690214     1.06600
H854        H  0.24238785  0.69005635  0.79920930     0.38400
O855        O  0.24956970  0.70613833  0.76543329    -1.09800
O856        O  0.22674542  0.75225702  0.68115733    -0.66500
Ni857      Ni  0.21640900  0.74691733  0.75019127     1.26300
O858        O  0.27376967  0.74098840  0.82623978    -0.66700
O859        O  0.18078911  0.70450196  0.76178562    -0.79000
C860        C  0.17610303  0.81640462  0.75833101     0.84400
O861        O  0.18417234  0.78893348  0.73534583    -0.66200
Ni862      Ni  0.25831798  0.66640246  0.72710900     1.27400
Ni863      Ni  0.28595478  0.74711811  0.75739760     1.26100
H864        H  0.26024215  0.80271407  0.70639526     0.39000
C865        C  0.14165505  0.86774038  0.71172242    -0.20400
C866        C  0.14389702  0.83808817  0.75551130    -0.07000
C867        C  0.11682802  0.83264713  0.79689960     0.13900
C868        C  0.08851100  0.85802240  0.79393913    -0.20500
C869        C  0.08735865  0.88963689  0.75111259    -0.07000
C870        C  0.11389235  0.89409005  0.70915485     0.13900
C871        C  0.11424203  0.92729744  0.66185905    -0.23800
H872        H  0.16252149  0.87187067  0.68001217     0.15200
H873        H  0.06794566  0.85471902  0.82579981     0.15200
C874        C  0.11803752  0.80041399  0.84421394    -0.23800
H875        H  0.11542733  0.91170499  0.63233714     0.05400
H876        H  0.13721189  0.94948661  0.65254285     0.08600
H877        H  0.09113864  0.94623056  0.66323041     0.08600
H878        H  0.14019065  0.80849447  0.85814977     0.10600
H879        H  0.12070621  0.76833761  0.83835171     0.08600
H880        H  0.09431178  0.79930665  0.87251233     0.05400
C881        C  0.40536220  0.85624071  0.78025836    -0.20400
C882        C  0.41156254  0.89791345  0.74963479    -0.07000
C883        C  0.38907808  0.91405856  0.71830536     0.13900
C884        C  0.35962740  0.88940960  0.72136647    -0.20500
C885        C  0.35294078  0.84829735  0.75305577    -0.07000
C886        C  0.37646604  0.83106133  0.78203661     0.13900
C887        C  0.37036794  0.78695327  0.81648491    -0.23800
H888        H  0.42262427  0.84390234  0.80409281     0.15200
H889        H  0.34177648  0.90233699  0.69864324     0.15200
C890        C  0.39520165  0.95722589  0.68159523    -0.23800
H891        H  0.39080640  0.77919973  0.83741852     0.05400
H892        H  0.37025857  0.76325305  0.79566410     0.08600
H893        H  0.34534401  0.78427436  0.84278365     0.08600
H894        H  0.42005110  0.97344042  0.67939491     0.08600
H895        H  0.37416958  0.97784365  0.69098046     0.08600
H896        H  0.39556306  0.95373394  0.64488336     0.05400
C897        C  0.39824941  0.61551364  0.80087220    -0.20400
C898        C  0.41449530  0.60239071  0.76022221    -0.07000
C899        C  0.40344365  0.61656214  0.71620857     0.13900
C900        C  0.37534040  0.64215908  0.71435695    -0.20500
C901        C  0.35782862  0.65389119  0.75548776    -0.07000
C902        C  0.36990004  0.64114350  0.79915650     0.13900
C903        C  0.35202806  0.65227612  0.84468801    -0.23800
H904        H  0.40697873  0.60425138  0.83450697     0.15200
H905        H  0.36642320  0.65224788  0.68075772     0.15200
C906        C  0.42086132  0.60385129  0.67145819    -0.23800
H907        H  0.36418031  0.63817279  0.87576590     0.05400
H908        H  0.32473885  0.64011906  0.85516434     0.08600
H909        H  0.35331448  0.68725131  0.83843205     0.08600
H910        H  0.41861594  0.56875266  0.67875434     0.08600
H911        H  0.44845306  0.61471227  0.66120978     0.08600
H912        H  0.40919896  0.61812079  0.63993540     0.05400
C913        C  0.11399205  0.61461051  0.70980301    -0.20400
C914        C  0.09113021  0.59923502  0.75502321    -0.07000
C915        C  0.09712417  0.61057239  0.79600369     0.13900
C916        C  0.12648272  0.63629785  0.79083244    -0.20500
C917        C  0.15026470  0.64995379  0.74609994    -0.07000
C918        C  0.14363629  0.63971964  0.70484020     0.13900
C919        C  0.16748700  0.65569365  0.65547746    -0.23800
H920        H  0.10905333  0.60585697  0.67857361     0.15200
H921        H  0.13157042  0.64423915  0.82244170     0.15200
C922        C  0.07380111  0.59493756  0.84581091    -0.23800
H923        H  0.15698435  0.64743296  0.62685692     0.05400
H924        H  0.19267901  0.64127505  0.65557190     0.08600
H925        H  0.17123697  0.69086733  0.64558073     0.08600
H926        H  0.08853293  0.57621946  0.87175273     0.08600
H927        H  0.05155160  0.57445868  0.84645865     0.08600
H928        H  0.06371773  0.62254741  0.85852985     0.05400
C929        C  0.13120383  0.85525549  0.95988233    -0.20400
C930        C  0.14112266  0.84193705  0.50694321    -0.07000
C931        C  0.11969887  0.84973639  0.54854469     0.13900
C932        C  0.09197857  0.87567290  0.54292531    -0.20500
C933        C  0.08543182  0.89421444  0.49681874    -0.07000
C934        C  0.10369117  0.88155456  0.95373906     0.13900
C935        C  0.09673191  0.89748745  0.90352369    -0.23800
H936        H  0.14673135  0.84737136  0.92854856     0.15200
H937        H  0.07604713  0.88288054  0.57441072     0.15200
C938        C  0.12581161  0.83061061  0.59888538    -0.23800
H939        H  0.11987950  0.91571881  0.87813280     0.05400
H940        H  0.09550286  0.87784306  0.38903885     0.08600
H941        H  0.07483169  0.91837773  0.90212421     0.08600
H942        H  0.15050708  0.84371609  0.60216384     0.08600
H943        H  0.12763927  0.79976312  0.10577030     0.08600
H944        H  0.10517323  0.83759817  0.62735162     0.05400
C945        C  0.40465782  0.88815153  0.95059452    -0.20400
C946        C  0.41020598  0.90056144  0.49201881    -0.07000
C947        C  0.38535949  0.88710693  0.53605620     0.13900
C948        C  0.35647250  0.86186457  0.53832891    -0.20500
C949        C  0.35156926  0.85007079  0.49743476    -0.07000
C950        C  0.37672577  0.86317192  0.45334707     0.13900
C951        C  0.37098936  0.85126789  0.90857468    -0.23800
H952        H  0.42370862  0.89856568  0.91669939     0.15200
H953        H  0.33722753  0.85188347  0.57208299     0.15200
C954        C  0.38894167  0.90036580  0.58029078    -0.23800
H955        H  0.39215770  0.86581787  0.87685855     0.05400
H956        H  0.34756335  0.86554131  0.39872018     0.08600
H957        H  0.37085891  0.81629484  0.91478690     0.08600
H958        H  0.38907724  0.93552810  0.57210361     0.08600
H959        H  0.41210567  0.89282957  0.08878190     0.08600
H960        H  0.36740575  0.88673505  0.61190110     0.05400
C961        C  0.41268949  0.64519208  0.97069187    -0.20400
C962        C  0.41108751  0.60528310  0.00468469    -0.07000
C963        C  0.38174341  0.59225296  0.53885740     0.13900
C964        C  0.35298332  0.61687986  0.53858436    -0.20500
C965        C  0.35343448  0.65513381  0.00603809    -0.07000
C966        C  0.38418223  0.67046336  0.97117283     0.13900
C967        C  0.38631386  0.71244499  0.93312354    -0.23800
H968        H  0.43581231  0.65570619  0.94247501     0.15200
H969        H  0.32953452  0.60552418  0.56593407     0.15200
C970        C  0.37929625  0.55155550  0.57919732    -0.23800
H971        H  0.41201623  0.71927427  0.90798796     0.05400
H972        H  0.38193236  0.73888804  0.44795163     0.08600
H973        H  0.36680283  0.71211012  0.91127088     0.08600
H974        H  0.40372925  0.53523896  0.57786814     0.08600
H975        H  0.35764883  0.52827739  0.07721398     0.08600
H976        H  0.37244282  0.55870326  0.61492118     0.05400
C977        C  0.10405335  0.63372963  0.95596809    -0.20400
C978        C  0.08787569  0.60309675  0.99875912    -0.07000
C979        C  0.10000199  0.59971861  0.54106898     0.13900
C980        C  0.12853063  0.62502084  0.54014487    -0.20500
C981        C  0.14486676  0.65414530  0.99785774    -0.07000
C982        C  0.13253383  0.65929278  0.95499455     0.13900
C983        C  0.14946107  0.69169059  0.90834517    -0.23800
H984        H  0.09496644  0.63671257  0.92293750     0.15200
H985        H  0.13878434  0.61971213  0.57247013     0.15200
C986        C  0.08394277  0.56728921  0.58821374    -0.23800
H987        H  0.13609410  0.69222870  0.87859773     0.05400
H988        H  0.17652481  0.68420659  0.89641508     0.08600
H989        H  0.14896187  0.72386245  0.91416968     0.08600
H990        H  0.07533419  0.58361459  0.61702044     0.08600
H991        H  0.06132239  0.54917357  0.58566793     0.08600
H992        H  0.10320077  0.54429689  0.59937240     0.05400
N993        N  0.94907149  0.00406702  0.99009867    -0.36700
N994        N  0.00029797  0.06492289  0.99384071    -0.57300
N995        N  0.54997950  0.50000197  0.99264447    -0.36700
N996        N  0.49910376  0.44029763  0.98417776    -0.57300
C997        C  0.93212863  0.04027200  0.98266293     0.26900
C998        C  0.93161440  0.47539678  0.97700411     0.26900
C999        C  0.57104158  0.03437901  0.98646839     0.26900
C1000       C  0.57007242  0.46854979  0.98327906     0.26900
C1001       C  0.97199677  0.08635294  0.00426438     0.35500
C1002       C  0.52641793  0.08517436  0.00313074     0.35500
C1003       C  0.97039625  0.41593019  0.99027795     0.35500
C1004       C  0.52426485  0.41338430  0.99228754     0.35500
C1005       C  0.90377850  0.03467964  0.96410821    -0.22000
C1006       C  0.90339287  0.49364017  0.96070809    -0.22000
C1007       C  0.60492656  0.02449267  0.97326270    -0.22000
C1008       C  0.60431352  0.48299981  0.97133872    -0.22000
C1009       C  0.98020689  0.12076108  0.01969239    -0.23000
C1010       C  0.51484180  0.12021256  0.01858592    -0.23000
C1011       C  0.97750278  0.37333858  0.00094413    -0.23000
C1012       C  0.51175191  0.37171276  0.00213905    -0.23000
C1013       C  0.93939024  0.07646871  0.99726938    -0.18400
C1014       C  0.93816658  0.43191400  0.98491051    -0.18400
C1015       C  0.55863217  0.42612676  0.98919329    -0.18400
C1016       C  0.56077602  0.07329881  0.99605268    -0.18400
H1017       H  0.88475367  0.05742676  0.95532865     0.14500
H1018       H  0.88399534  0.47854329  0.94891619     0.14500
H1019       H  0.62781468  0.04476598  0.96664679     0.14500
H1020       H  0.62664279  0.46527581  0.96288825     0.14500
H1021       H  0.96315813  0.14405571  0.03014017     0.12800
H1022       H  0.52974733  0.14286553  0.02823228     0.12800
H1023       H  0.95987324  0.34632112  0.00723101     0.12800
H1024       H  0.52581797  0.34318702  0.00946870     0.12800
H1025       H  0.96793946  0.99726005  0.01016069     0.26100
H1026       H  0.52392259  0.49638167  0.00833495     0.26100
N1027       N  0.94845134  0.99727491  0.26386817    -0.36700
N1028       N  0.99796161  0.05948990  0.26934082    -0.57300
N1029       N  0.55010413  0.49855904  0.25962440    -0.36700
N1030       N  0.49939040  0.43520977  0.25849473    -0.57300
C1031       C  0.92779448  0.02629696  0.27836001     0.26900
C1032       C  0.92859865  0.46144365  0.27256709     0.26900
C1033       C  0.56785063  0.02886883  0.26986273     0.26900
C1034       C  0.56845502  0.46338593  0.26550736     0.26900
C1035       C  0.97163167  0.08475459  0.26251911     0.35500
C1036       C  0.52611407  0.08559119  0.26042170     0.35500
C1037       C  0.97390876  0.41506558  0.24768188     0.35500
C1038       C  0.52817913  0.41491410  0.24738443     0.35500
C1039       C  0.89450227  0.00866157  0.29697308    -0.22000
C1040       C  0.89504880  0.46755238  0.29364058    -0.22000
C1041       C  0.59794479  0.01284365  0.28211492    -0.22000
C1042       C  0.59829884  0.47154716  0.27946947    -0.22000
C1043       C  0.98285172  0.12713265  0.25035413    -0.23000
C1044       C  0.51748306  0.12766176  0.24923073    -0.23000
C1045       C  0.98648426  0.38145379  0.23004723    -0.23000
C1046       C  0.52092282  0.38113298  0.23027586    -0.23000
C1047       C  0.93742115  0.06966512  0.26925695    -0.18400
C1048       C  0.93920069  0.42547451  0.25643583    -0.18400
C1049       C  0.56049585  0.42535937  0.25472984    -0.18400
C1050       C  0.55912863  0.07163894  0.26431560    -0.18400
H1051       H  0.87199285  0.02424322  0.31017990     0.14500
H1052       H  0.87300995  0.44519932  0.30390016     0.14500
H1053       H  0.61792984  0.02940664  0.29116722     0.14500
H1054       H  0.61866698  0.45028586  0.28600356     0.14500
H1055       H  0.96766343  0.15468616  0.24328596     0.12800
H1056       H  0.53436965  0.15572955  0.24102765     0.12800
H1057       H  0.97234172  0.35928272  0.21864906     0.12800
H1058       H  0.53861806  0.35876569  0.21896152     0.12800
H1059       H  0.97310175  0.00382245  0.24205801     0.26100
H1060       H  0.52911188  0.50333016  0.24353336     0.26100
O1061       O  0.69332312  0.33339181  0.02887171    -0.81000
O1062       O  0.81726712  0.21130997  0.01390303    -0.65700
O1063       O  0.74914300  0.29121154  0.48935628    -1.12300
C1064       C  0.67740717  0.17705940  0.49681846     1.05900
O1065       O  0.79880730  0.15912252  0.48672523    -0.78900
O1066       O  0.76570209  0.21052045  0.42160624    -0.66500
Ni1067     Ni  0.74204024  0.33203482  0.02563477     1.34900
C1068       C  0.74729351  0.24077182  0.40613378     0.84600
O1069       O  0.81837254  0.29471818  0.98566474    -0.79400
O1070       O  0.79028847  0.33853164  0.02493221    -0.89700
C1071       C  0.82168122  0.17702094  0.50013752     0.84200
O1072       O  0.73363056  0.29046414  0.08689793    -0.67900
O1073       O  0.70511408  0.16662244  0.47337107    -0.87200
C1074       C  0.75250574  0.26049252  0.10103559     0.85000
C1075       C  0.81785590  0.32658891  0.00248652     1.06600
H1076       H  0.74035800  0.19403550  0.05286451     0.38400
O1077       O  0.74595727  0.20838631  0.01844151    -1.09800
O1078       O  0.72243486  0.25283408  0.43413404    -0.66500
Ni1079     Ni  0.71275534  0.24895251  0.50328711     1.26300
O1080       O  0.77567217  0.24749090  0.07164550    -0.66700
O1081       O  0.67690335  0.20574537  0.51846872    -0.79000
C1082       C  0.67271334  0.31985394  0.00789283     0.84400
O1083       O  0.67965603  0.28997470  0.49002025    -0.66200
Ni1084     Ni  0.75197300  0.16727116  0.48129730     1.27400
Ni1085     Ni  0.78290246  0.25105882  0.00271415     1.26100
H1086       H  0.75421758  0.30677819  0.45526892     0.39000
O1087       O  0.69580617  0.33173562  0.28260002    -0.81000
O1088       O  0.81618986  0.20613170  0.27232013    -0.65700
O1089       O  0.75236925  0.29065209  0.24040769    -1.12300
C1090       C  0.67871142  0.17694522  0.24775453     1.05900
O1091       O  0.80262162  0.16432852  0.22965648    -0.78900
O1092       O  0.76502555  0.20928399  0.16846325    -0.66500
Ni1093     Ni  0.74506553  0.33339494  0.27509186     1.34900
C1094       C  0.74733346  0.24036296  0.15363888     0.84600
O1095       O  0.82162747  0.28985882  0.24629227    -0.79400
O1096       O  0.79357565  0.34264100  0.26991957    -0.89700
C1097       C  0.82239476  0.17569444  0.25335899     0.84200
O1098       O  0.73884296  0.29477745  0.33847201    -0.67900
O1099       O  0.70640596  0.16321548  0.22800733    -0.87200
C1100       C  0.75390072  0.26122674  0.35363286     0.85000
C1101       C  0.82111864  0.32528368  0.25627403     1.06600
H1102       H  0.74041126  0.19335974  0.30107479     0.38400
O1103       O  0.74742022  0.20870333  0.26702095    -1.09800
O1104       O  0.72467344  0.25454804  0.18240588    -0.66500
Ni1105     Ni  0.71494477  0.25029021  0.25139227     1.26300
O1106       O  0.77418042  0.24392713  0.32557522    -0.66700
O1107       O  0.67823360  0.20873886  0.26472638    -0.79000
C1108       C  0.67632788  0.32136801  0.25799340     0.84400
O1109       O  0.68343434  0.29296192  0.23616257    -0.66200
Ni1110     Ni  0.75435059  0.16776167  0.23007081     1.27400
Ni1111     Ni  0.78486019  0.24894325  0.25690923     1.26100
H1112       H  0.75939254  0.30518790  0.20612974     0.39000
C1113       C  0.64158183  0.37259479  0.21192537    -0.20400
C1114       C  0.64420856  0.34313852  0.25565254    -0.07000
C1115       C  0.61754948  0.33778181  0.29746734     0.13900
C1116       C  0.58924276  0.36313774  0.29503125    -0.20500
C1117       C  0.58767656  0.39451751  0.25222980    -0.07000
C1118       C  0.61375290  0.39884207  0.20981052     0.13900
C1119       C  0.61349265  0.43168329  0.16247258    -0.23800
H1120       H  0.66214078  0.37655714  0.17987827     0.15200
H1121       H  0.56896180  0.35990610  0.32721113     0.15200
C1122       C  0.61918998  0.30565500  0.34467740    -0.23800
H1123       H  0.61415432  0.41575709  0.13333493     0.05400
H1124       H  0.63650571  0.45393117  0.15227619     0.08600
H1125       H  0.59039194  0.45060941  0.16430666     0.08600
H1126       H  0.64169247  0.31369201  0.35793695     0.10600
H1127       H  0.62153981  0.27350898  0.33894923     0.08600
H1128       H  0.59577722  0.30476449  0.37342894     0.05400
C1129       C  0.90601317  0.35574679  0.28021554    -0.20400
C1130       C  0.91220668  0.39754348  0.24992567    -0.07000
C1131       C  0.89017242  0.41364224  0.21793069     0.13900
C1132       C  0.86090122  0.38898191  0.22032678    -0.20500
C1133       C  0.85396011  0.34793184  0.25208444    -0.07000
C1134       C  0.87726422  0.33057847  0.28135615     0.13900
C1135       C  0.87105340  0.28634658  0.31536472    -0.23800
H1136       H  0.92302288  0.34339243  0.30443417     0.15200
H1137       H  0.84323326  0.40199135  0.19733825     0.15200
C1138       C  0.89650825  0.45688274  0.18139351    -0.23800
H1139       H  0.89149281  0.27831583  0.33624069     0.05400
H1140       H  0.87089652  0.26301117  0.29409702     0.08600
H1141       H  0.84601439  0.28355567  0.34165809     0.08600
H1142       H  0.92112944  0.47320072  0.18001938     0.08600
H1143       H  0.87525003  0.47735798  0.19031734     0.08600
H1144       H  0.89751827  0.45346967  0.14447260     0.05400
C1145       C  0.89492262  0.11579079  0.30308544    -0.20400
C1146       C  0.91025826  0.10047959  0.26371182    -0.07000
C1147       C  0.89821781  0.11218967  0.22029536     0.13900
C1148       C  0.87037844  0.13814449  0.21764347    -0.20500
C1149       C  0.85404729  0.15252564  0.25743678    -0.07000
C1150       C  0.86674999  0.14160396  0.30066193     0.13900
C1151       C  0.84972857  0.15486810  0.34516663    -0.23800
H1152       H  0.90434091  0.10627481  0.33631523     0.15200
H1153       H  0.86087223  0.14664826  0.18444828     0.15200
C1154       C  0.91449573  0.09684988  0.17692136    -0.23800
H1155       H  0.86216992  0.14175628  0.37618394     0.05400
H1156       H  0.82231071  0.14318555  0.35675716     0.08600
H1157       H  0.85148943  0.18997443  0.33712748     0.08600
H1158       H  0.91162331  0.06163361  0.18646218     0.08600
H1159       H  0.94222641  0.10707274  0.16530143     0.08600
H1160       H  0.90242789  0.10989559  0.14552089     0.05400
C1161       C  0.60799112  0.12149873  0.21463544    -0.20400
C1162       C  0.58679388  0.10336213  0.26061244    -0.07000
C1163       C  0.59409683  0.11277179  0.30198067     0.13900
C1164       C  0.62357465  0.13853238  0.29648650    -0.20500
C1165       C  0.64590980  0.15460864  0.25079893    -0.07000
C1166       C  0.63747311  0.14709427  0.20917305     0.13900
C1167       C  0.65925673  0.16645528  0.15891366    -0.23800
H1168       H  0.60192419  0.11450484  0.18306132     0.15200
H1169       H  0.62990591  0.14460965  0.32836129     0.15200
C1170       C  0.57196620  0.09511750  0.35233488    -0.23800
H1171       H  0.64768304  0.15947007  0.13040019     0.05400
H1172       H  0.68513975  0.15357413  0.15565606     0.08600
H1173       H  0.66177959  0.20154731  0.15166333     0.08600
H1174       H  0.58754125  0.07568128  0.37650177     0.08600
H1175       H  0.54958983  0.07482399  0.35300909     0.08600
H1176       H  0.56201098  0.12172470  0.36713489     0.05400
C1177       C  0.63326434  0.35839746  0.46118101    -0.20400
C1178       C  0.64031095  0.34142287  0.00515676    -0.07000
C1179       C  0.61983472  0.35148287  0.04607058     0.13900
C1180       C  0.59208317  0.37723853  0.03999437    -0.20500
C1181       C  0.58443677  0.39334317  0.99415178    -0.07000
C1182       C  0.60588692  0.38493775  0.45547488     0.13900
C1183       C  0.60036329  0.40385694  0.40483884    -0.23800
H1184       H  0.64965398  0.35233621  0.42930707     0.15200
H1185       H  0.57699292  0.38627150  0.07083060     0.15200
C1186       C  0.62688855  0.33491840  0.09627539    -0.23800
H1187       H  0.62371672  0.42330131  0.38173546     0.05400
H1188       H  0.59073682  0.36997411  0.89084733     0.08600
H1189       H  0.57822850  0.42439460  0.40389887     0.08600
H1190       H  0.65170909  0.34901971  0.09782245     0.08600
H1191       H  0.62636503  0.29549938  0.60626982     0.08600
H1192       H  0.60661764  0.34299865  0.12438544     0.05400
C1193       C  0.90593428  0.38809162  0.45136264    -0.20400
C1194       C  0.90888000  0.40179143  0.99053062    -0.07000
C1195       C  0.88403098  0.38917043  0.03467345     0.13900
C1196       C  0.85519615  0.36351686  0.03775254    -0.20500
C1197       C  0.85041318  0.35042206  0.99762129    -0.07000
C1198       C  0.87554461  0.36273353  0.95344509     0.13900
C1199       C  0.87201852  0.35324934  0.40771333    -0.23800
H1200       H  0.92493291  0.39922664  0.41751050     0.15200
H1201       H  0.83595670  0.35410896  0.07155903     0.15200
C1202       C  0.88767318  0.40341481  0.07828826    -0.23800
H1203       H  0.89321411  0.36826406  0.37622145     0.05400
H1204       H  0.84648382  0.36297844  0.89920677     0.08600
H1205       H  0.87167642  0.31840978  0.41272398     0.08600
H1206       H  0.88765838  0.43860378  0.06947253     0.08600
H1207       H  0.91328412  0.38938313  0.59077237     0.08600
H1208       H  0.86623513  0.39004925  0.11012748     0.05400
C1209       C  0.91290444  0.14560481  0.46692363    -0.20400
C1210       C  0.91154144  0.10594896  0.50128088    -0.07000
C1211       C  0.88091851  0.09127030  0.04155040     0.13900
C1212       C  0.85229339  0.11615883  0.04126856    -0.20500
C1213       C  0.85386473  0.15557711  0.50301029    -0.07000
C1214       C  0.88443747  0.17089901  0.46779652     0.13900
C1215       C  0.88644581  0.21297028  0.42995334    -0.23800
H1216       H  0.93586803  0.15602075  0.43838376     0.15200
H1217       H  0.82864186  0.10462817  0.06812176     0.15200
C1218       C  0.87780261  0.04977214  0.08085677    -0.23800
H1219       H  0.91200037  0.21972454  0.40444292     0.05400
H1220       H  0.88145572  0.23841534  0.95097966     0.08600
H1221       H  0.86663349  0.21284260  0.40853717     0.08600
H1222       H  0.90210882  0.03319301  0.07965209     0.08600
H1223       H  0.85903817  0.02940847  0.57708285     0.08600
H1224       H  0.87039701  0.05583951  0.11710180     0.05400
C1225       C  0.60332841  0.13666731  0.45582100    -0.20400
C1226       C  0.58782882  0.10493028  0.49798179    -0.07000
C1227       C  0.59941381  0.09920228  0.04211566     0.13900
C1228       C  0.62778705  0.12489459  0.04108455    -0.20500
C1229       C  0.64498269  0.15540529  0.49745662    -0.07000
C1230       C  0.63194981  0.16189827  0.45499408     0.13900
C1231       C  0.64846308  0.19509475  0.40880152    -0.23800
H1232       H  0.59372609  0.14066491  0.42305515     0.15200
H1233       H  0.63741085  0.12089590  0.07386143     0.15200
C1234       C  0.58284515  0.06775633  0.08973933    -0.23800
H1235       H  0.63459817  0.19657027  0.37934251     0.05400
H1236       H  0.67539552  0.18766028  0.39586339     0.08600
H1237       H  0.64829777  0.22684979  0.41568331     0.08600
H1238       H  0.57369035  0.08499700  0.11752401     0.08600
H1239       H  0.56053562  0.04909999  0.08717551     0.08600
H1240       H  0.60197141  0.04514278  0.10228265     0.05400
N1241       N  0.94975269  0.00416162  0.48973314    -0.36700
N1242       N  0.00085555  0.06625298  0.49150543    -0.57300
N1243       N  0.55054792  0.50111664  0.49370727    -0.36700
N1244       N  0.49984503  0.44016636  0.48728240    -0.57300
C1245       C  0.93268459  0.04021432  0.48122191     0.26900
C1246       C  0.93231956  0.47459234  0.47793552     0.26900
C1247       C  0.57147433  0.03579903  0.48657016     0.26900
C1248       C  0.57076721  0.46943078  0.48550172     0.26900
C1249       C  0.97250520  0.08789398  0.50078314     0.35500
C1250       C  0.52673935  0.08712429  0.50048606     0.35500
C1251       C  0.97114498  0.41544551  0.49424282     0.35500
C1252       C  0.52495080  0.41356941  0.49692959     0.35500
C1253       C  0.90421552  0.03360877  0.46339653    -0.22000
C1254       C  0.90393981  0.49213298  0.46143590    -0.22000
C1255       C  0.60541763  0.02591628  0.47397153    -0.22000
C1256       C  0.60497965  0.48408676  0.47336057    -0.22000
C1257       C  0.98049922  0.12308635  0.51502223    -0.23000
C1258       C  0.51501101  0.12277639  0.51444723    -0.23000
C1259       C  0.97817678  0.37288090  0.50729044    -0.23000
C1260       C  0.51239397  0.37168507  0.50887834    -0.23000
C1261       C  0.93995094  0.07726666  0.49425851    -0.18400
C1262       C  0.93910593  0.43106377  0.48708608    -0.18400
C1263       C  0.55940441  0.42674077  0.49268318    -0.18400
C1264       C  0.56101709  0.07508690  0.49480655    -0.18400
H1265       H  0.88505487  0.05600606  0.45413163     0.14500
H1266       H  0.88449583  0.47633363  0.45047073     0.14500
H1267       H  0.62822044  0.04646859  0.46685508     0.14500
H1268       H  0.62741185  0.46630860  0.46571347     0.14500
H1269       H  0.96335776  0.14666085  0.52450181     0.12800
H1270       H  0.52972632  0.14593059  0.52360867     0.12800
H1271       H  0.96056053  0.34562490  0.51469373     0.12800
H1272       H  0.52641247  0.34328450  0.51774397     0.12800
H1273       H  0.96875076  0.99823194  0.50961544     0.26100
H1274       H  0.52447529  0.49761999  0.50931224     0.26100
N1275       N  0.95030148  0.99750991  0.76075962    -0.36700
N1276       N  0.00147573  0.05841087  0.76390989    -0.57300
N1277       N  0.55205049  0.49522866  0.75588305    -0.36700
N1278       N  0.49983564  0.43325852  0.75669929    -0.57300
C1279       C  0.93041503  0.02748943  0.77456810     0.26900
C1280       C  0.92967344  0.46219423  0.77023641     0.26900
C1281       C  0.57043071  0.02522999  0.76565668     0.26900
C1282       C  0.56939932  0.45926478  0.76330722     0.26900
C1283       C  0.97566882  0.08460029  0.75733286     0.35500
C1284       C  0.53023983  0.08357266  0.75438477     0.35500
C1285       C  0.97375319  0.41386535  0.74631305     0.35500
C1286       C  0.52801583  0.41168615  0.74619913     0.35500
C1287       C  0.89682763  0.01097063  0.79342515    -0.22000
C1288       C  0.89640356  0.46959844  0.79109407    -0.22000
C1289       C  0.59987860  0.00821727  0.77920750    -0.22000
C1290       C  0.59921525  0.46661047  0.77777637    -0.22000
C1291       C  0.98787161  0.12665193  0.74456910    -0.23000
C1292       C  0.52259249  0.12600389  0.74281307    -0.23000
C1293       C  0.98537250  0.37948472  0.72946063    -0.23000
C1294       C  0.51978094  0.37785563  0.72986354    -0.23000
C1295       C  0.94105821  0.07062605  0.76510644    -0.18400
C1296       C  0.93931797  0.42551970  0.75494768    -0.18400
C1297       C  0.56062974  0.42116951  0.75336079    -0.18400
C1298       C  0.56285302  0.06844378  0.75870991    -0.18400
H1299       H  0.87475243  0.02738677  0.80631054     0.14500
H1300       H  0.87390354  0.44791894  0.80184680     0.14500
H1301       H  0.62009870  0.02431980  0.78832931     0.14500
H1302       H  0.61890814  0.44457813  0.78543882     0.14500
H1303       H  0.97326552  0.15474636  0.73764271     0.12800
H1304       H  0.54014233  0.15351911  0.73425097     0.12800
H1305       H  0.97060764  0.35759780  0.71851830     0.12800
H1306       H  0.53681066  0.35463292  0.71916184     0.12800
H1307       H  0.97501192  0.00296588  0.73905792     0.26100
H1308       H  0.53141027  0.50060874  0.73906615     0.26100
O1309       O  0.69410398  0.33329371  0.53059780    -0.81000
O1310       O  0.81827771  0.21219326  0.51037847    -0.65700
O1311       O  0.74864985  0.29057590  0.98960288    -1.12300
C1312       C  0.67719239  0.17603414  0.99726714     1.05900
O1313       O  0.79882344  0.15893758  0.98824057    -0.78900
O1314       O  0.76565718  0.20905805  0.92264973    -0.66500
Ni1315     Ni  0.74298359  0.33194940  0.52630844     1.34900
C1316       C  0.74735603  0.23919521  0.90663635     0.84600
O1317       O  0.81911542  0.29564047  0.48351934    -0.79400
O1318       O  0.79140438  0.33824818  0.52488559    -0.89700
C1319       C  0.82123194  0.17655082  0.00277416     0.84200
O1320       O  0.73517893  0.28950454  0.58669794    -0.67900
O1321       O  0.70507711  0.16508000  0.97478219    -0.87200
C1322       C  0.75453665  0.25981890  0.59981418     0.85000
C1323       C  0.81885426  0.32675700  0.50159796     1.06600
H1324       H  0.74150192  0.19444208  0.55167176     0.38400
O1325       O  0.74668026  0.20896504  0.51729263    -1.09800
O1326       O  0.72249521  0.25169014  0.93419947    -0.66500
Ni1327     Ni  0.71223440  0.24842503  0.00320400     1.26300
O1328       O  0.77760169  0.24753328  0.56969702    -0.66700
O1329       O  0.67639877  0.20529050  0.01815520    -0.79000
C1330       C  0.67334976  0.32011245  0.50954301     0.84400
O1331       O  0.67925697  0.28948098  0.98878813    -0.66200
Ni1332     Ni  0.75190460  0.16639290  0.98279817     1.27400
Ni1333     Ni  0.78368097  0.25180037  0.50083011     1.26100
H1334       H  0.75418535  0.30573400  0.95538416     0.39000
O1335       O  0.69485185  0.32595966  0.78432712    -0.81000
O1336       O  0.81792550  0.20499733  0.77282285    -0.65700
O1337       O  0.75294505  0.28801155  0.74059529    -1.12300
C1338       C  0.68241803  0.17310050  0.74396969     1.05900
O1339       O  0.80660929  0.16479832  0.72708732    -0.78900
O1340       O  0.76844408  0.20887166  0.66624936    -0.66500
Ni1341     Ni  0.74421610  0.33078913  0.77503602     1.34900
C1342       C  0.74991762  0.23919830  0.65205188     0.84600
O1343       O  0.82168688  0.28876994  0.74892023    -0.79400
O1344       O  0.79255658  0.34265700  0.76826643    -0.89700
C1345       C  0.82552913  0.17584040  0.75211287     0.84200
O1346       O  0.73973339  0.29317975  0.83863588    -0.67900
O1347       O  0.71067479  0.16039628  0.72440899    -0.87200
C1348       C  0.75412504  0.25913726  0.85402713     0.85000
C1349       C  0.82044251  0.32505077  0.75689746     1.06600
H1350       H  0.74239423  0.19004763  0.79921418     0.38400
O1351       O  0.74957209  0.20612936  0.76543891    -1.09800
O1352       O  0.72673814  0.25224054  0.68116827    -0.66500
Ni1353     Ni  0.71640680  0.24690336  0.75020165     1.26300
O1354       O  0.77377630  0.24098766  0.82623581    -0.66700
O1355       O  0.68078958  0.20448248  0.76180382    -0.79000
C1356       C  0.67609794  0.31639070  0.75833693     0.84400
O1357       O  0.68416558  0.28891417  0.73535898    -0.66200
Ni1358     Ni  0.75831996  0.16639597  0.72711155     1.27400
Ni1359     Ni  0.78595553  0.24711454  0.75739368     1.26100
H1360       H  0.76023467  0.30270479  0.70639604     0.39000
C1361       C  0.64165123  0.36772271  0.71172124    -0.20400
C1362       C  0.64389262  0.33807533  0.75551366    -0.07000
C1363       C  0.61682498  0.33264280  0.79690203     0.13900
C1364       C  0.58851067  0.35802220  0.79393853    -0.20500
C1365       C  0.58735936  0.38963229  0.75110823    -0.07000
C1366       C  0.61389102  0.39407628  0.70915010     0.13900
C1367       C  0.61424109  0.42727730  0.66184965    -0.23800
H1368       H  0.66251652  0.37184648  0.68001074     0.15200
H1369       H  0.56794639  0.35472492  0.82579912     0.15200
C1370       C  0.61803250  0.30041306  0.84421904    -0.23800
H1371       H  0.61542140  0.41167831  0.63233414     0.05400
H1372       H  0.63721376  0.44946321  0.65252567     0.08600
H1373       H  0.59114015  0.44621475  0.66321899     0.08600
H1374       H  0.64018803  0.30849086  0.85815184     0.10600
H1375       H  0.62069564  0.26833514  0.83836069     0.08600
H1376       H  0.59430813  0.29931204  0.87251764     0.05400
C1377       C  0.90536403  0.35623229  0.78025053    -0.20400
C1378       C  0.91155759  0.39791294  0.74964587    -0.07000
C1379       C  0.88906642  0.41406651  0.71832895     0.13900
C1380       C  0.85961638  0.38941784  0.72138613    -0.20500
C1381       C  0.85293747  0.34829670  0.75305539    -0.07000
C1382       C  0.87646939  0.33105269  0.78202202     0.13900
C1383       C  0.87038000  0.28693514  0.81644955    -0.23800
H1384       H  0.92263041  0.34388692  0.80407603     0.15200
H1385       H  0.84176066  0.40235196  0.69867341     0.15200
C1386       C  0.89518285  0.45724164  0.68163396    -0.23800
H1387       H  0.89082219  0.27917612  0.83737574     0.05400
H1388       H  0.87027170  0.26324663  0.79561333     0.08600
H1389       H  0.84535803  0.28424240  0.84275593     0.08600
H1390       H  0.92003288  0.47345558  0.67943199     0.08600
H1391       H  0.87415057  0.47785353  0.69103607     0.08600
H1392       H  0.89553801  0.45376210  0.64491841     0.05400
C1393       C  0.89824424  0.11550553  0.80088823    -0.20400
C1394       C  0.91449526  0.10238434  0.76023951    -0.07000
C1395       C  0.90344893  0.11655661  0.71622170     0.13900
C1396       C  0.87534583  0.14215346  0.71436436    -0.20500
C1397       C  0.85782987  0.15388492  0.75549333    -0.07000
C1398       C  0.86989510  0.14113500  0.79916664     0.13900
C1399       C  0.85201580  0.15226440  0.84469671    -0.23800
H1400       H  0.90696918  0.10424202  0.83452633     0.15200
H1401       H  0.86643219  0.15224293  0.68076234     0.15200
C1402       C  0.92087207  0.10384655  0.67147313    -0.23800
H1403       H  0.86416342  0.13815959  0.87577899     0.05400
H1404       H  0.82472697  0.14010654  0.85516457     0.08600
H1405       H  0.85330063  0.18723943  0.83844320     0.08600
H1406       H  0.91862787  0.06874789  0.67876856     0.08600
H1407       H  0.94846353  0.11470833  0.66123022     0.08600
H1408       H  0.90921298  0.11811579  0.63994696     0.05400
C1409       C  0.61400976  0.11457751  0.70980209    -0.20400
C1410       C  0.59113338  0.09922707  0.75501328    -0.07000
C1411       C  0.59711597  0.11058111  0.79598974     0.13900
C1412       C  0.62647388  0.13630648  0.79082156    -0.20500
C1413       C  0.65026922  0.14994012  0.74609865    -0.07000
C1414       C  0.64365611  0.13968032  0.70484416     0.13900
C1415       C  0.66752587  0.15561720  0.65549122    -0.23800
H1416       H  0.60908121  0.10580697  0.67857717     0.15200
H1417       H  0.63155096  0.14426365  0.82242786     0.15200
C1418       C  0.57378259  0.09496199  0.84579110    -0.23800
H1419       H  0.65703358  0.14733948  0.62687190     0.05400
H1420       H  0.69271019  0.14118433  0.65561930     0.08600
H1421       H  0.67128853  0.19079083  0.64556570     0.08600
H1422       H  0.58850732  0.07625069  0.87174732     0.08600
H1423       H  0.55153495  0.07448065  0.84643754     0.08600
H1424       H  0.56369692  0.12257907  0.85849289     0.05400
C1425       C  0.63120632  0.35525181  0.95988286    -0.20400
C1426       C  0.64111988  0.34193198  0.50693727    -0.07000
C1427       C  0.61968712  0.34972393  0.54853647     0.13900
C1428       C  0.59197159  0.37566733  0.54290960    -0.20500
C1429       C  0.58543911  0.39422421  0.49679775    -0.07000
C1430       C  0.60369376  0.38155085  0.95373889     0.13900
C1431       C  0.59673795  0.39748833  0.90352207    -0.23800
H1432       H  0.64673648  0.34737164  0.92854824     0.15200
H1433       H  0.57603244  0.38286767  0.57439424     0.15200
C1434       C  0.62578612  0.33058416  0.59888220    -0.23800
H1435       H  0.61988591  0.41572274  0.87813562     0.05400
H1436       H  0.59554296  0.37789284  0.38899371     0.08600
H1437       H  0.57483661  0.41837683  0.90212295     0.08600
H1438       H  0.65048011  0.34368002  0.60217706     0.08600
H1439       H  0.62763090  0.29974379  0.10577099     0.08600
H1440       H  0.60514354  0.33757048  0.62734422     0.05400
C1441       C  0.90466037  0.38815799  0.95057437    -0.20400
C1442       C  0.91019354  0.40055866  0.49205959    -0.07000
C1443       C  0.88534224  0.38710479  0.53609207     0.13900
C1444       C  0.85645586  0.36186534  0.53835601    -0.20500
C1445       C  0.85155767  0.35007444  0.49745771    -0.07000
C1446       C  0.87671733  0.36317818  0.45337368     0.13900
C1447       C  0.87099024  0.35126558  0.90856416    -0.23800
H1448       H  0.92371047  0.39856935  0.91667819     0.15200
H1449       H  0.83720790  0.35188324  0.57210692     0.15200
C1450       C  0.88891921  0.40036023  0.58033103    -0.23800
H1451       H  0.89215944  0.36580996  0.87684691     0.05400
H1452       H  0.84755977  0.36555853  0.39873899     0.08600
H1453       H  0.87085741  0.31629169  0.91478379     0.08600
H1454       H  0.88905698  0.43552251  0.57214605     0.08600
H1455       H  0.91211534  0.39284130  0.08875669     0.08600
H1456       H  0.86737983  0.38673027  0.61193655     0.05400
C1457       C  0.91268443  0.14518746  0.97066691    -0.20400
C1458       C  0.91108719  0.10528602  0.00467141    -0.07000
C1459       C  0.88174133  0.09225356  0.53887972     0.13900
C1460       C  0.85298150  0.11688035  0.53859960    -0.20500
C1461       C  0.85343822  0.15514051  0.00603825    -0.07000
C1462       C  0.88417816  0.17045941  0.97115215     0.13900
C1463       C  0.88630159  0.21242983  0.93308656    -0.23800
H1464       H  0.93580204  0.15569405  0.94243813     0.15200
H1465       H  0.82952947  0.10552268  0.56594189     0.15200
C1466       C  0.87929003  0.05155498  0.57921897    -0.23800
H1467       H  0.91199822  0.21925097  0.90793563     0.05400
H1468       H  0.88193864  0.23889566  0.44799453     0.08600
H1469       H  0.86678031  0.21208351  0.91125270     0.08600
H1470       H  0.90372328  0.03523930  0.57789621     0.08600
H1471       H  0.85765278  0.02829176  0.07723082     0.08600
H1472       H  0.87243056  0.05870123  0.61494328     0.05400
C1473       C  0.60404948  0.13375529  0.95595359    -0.20400
C1474       C  0.58788870  0.10309409  0.99873032    -0.07000
C1475       C  0.59999578  0.09972293  0.54105657     0.13900
C1476       C  0.62852656  0.12501817  0.54013922    -0.20500
C1477       C  0.64487494  0.15414391  0.99784357    -0.07000
C1478       C  0.63252775  0.15931928  0.95498756     0.13900
C1479       C  0.64943872  0.19174621  0.90835357    -0.23800
H1480       H  0.59495082  0.13676104  0.92292765     0.15200
H1481       H  0.63877728  0.11970450  0.57246726     0.15200
C1482       C  0.58393109  0.06729298  0.58819805    -0.23800
H1483       H  0.63606678  0.19229668  0.87860796     0.05400
H1484       H  0.67650520  0.18428191  0.89640348     0.08600
H1485       H  0.64892988  0.22390693  0.91420906     0.08600
H1486       H  0.57532434  0.08361671  0.61700678     0.08600
H1487       H  0.56130847  0.04918442  0.58564738     0.08600
H1488       H  0.60318518  0.04429478  0.59935703     0.05400
N1489       N  0.94908199  0.50407721  0.99008832    -0.36700
N1490       N  0.00030189  0.56492625  0.99386051    -0.57300
N1491       N  0.54999033  0.00001691  0.99262857    -0.36700
N1492       N  0.49911691  0.94031440  0.98414696    -0.57300
C1493       C  0.93213944  0.54028231  0.98265561     0.26900
C1494       C  0.93160042  0.97538138  0.97702647     0.26900
C1495       C  0.57103153  0.53436516  0.98647609     0.26900
C1496       C  0.57008422  0.96856515  0.98326460     0.26900
C1497       C  0.97199951  0.58635518  0.00428155     0.35500
C1498       C  0.52640998  0.58516291  0.00313629     0.35500
C1499       C  0.97038094  0.91591363  0.99031641     0.35500
C1500       C  0.52427871  0.91340161  0.99225408     0.35500
C1501       C  0.90379361  0.53469548  0.96408931    -0.22000
C1502       C  0.90337607  0.99362148  0.96073566    -0.22000
C1503       C  0.60491594  0.52447932  0.97326410    -0.22000
C1504       C  0.60432523  0.98301404  0.97133350    -0.22000
C1505       C  0.98020651  0.62076115  0.01971539    -0.23000
C1506       C  0.51483528  0.62020202  0.01859046    -0.23000
C1507       C  0.97748431  0.87332078  0.00100193    -0.23000
C1508       C  0.51176803  0.87173057  0.00209370    -0.23000
C1509       C  0.93939564  0.57647318  0.99727580    -0.18400
C1510       C  0.93815315  0.93189789  0.98493896    -0.18400
C1511       C  0.55864445  0.92614333  0.98917114    -0.18400
C1512       C  0.56076753  0.57328558  0.99605908    -0.18400
H1513       H  0.88476999  0.55744400  0.95530843     0.14500
H1514       H  0.88397538  0.97852073  0.94895342     0.14500
H1515       H  0.62780447  0.54475374  0.96664119     0.14500
H1516       H  0.62665498  0.96528980  0.96288614     0.14500
H1517       H  0.96315640  0.64405517  0.03016168     0.12800
H1518       H  0.52974150  0.64285356  0.02823794     0.12800
H1519       H  0.95985285  0.84630255  0.00730076     0.12800
H1520       H  0.52583504  0.84320527  0.00941901     0.12800
H1521       H  0.96794658  0.49726495  0.01015718     0.26100
H1522       H  0.52393269  0.99639607  0.00831240     0.26100
N1523       N  0.94845595  0.49727911  0.26383912    -0.36700
N1524       N  0.99796731  0.55949491  0.26930586    -0.57300
N1525       N  0.55010809  0.99856010  0.25960612    -0.36700
N1526       N  0.49939240  0.93521254  0.25847801    -0.57300
C1527       C  0.92779978  0.52630082  0.27833281     0.26900
C1528       C  0.92859394  0.96143984  0.27259327     0.26900
C1529       C  0.56784494  0.52886596  0.26988680     0.26900
C1530       C  0.56845556  0.96338439  0.26550000     0.26900
C1531       C  0.97163743  0.58475939  0.26248278     0.35500
C1532       C  0.52610458  0.58558545  0.26045846     0.35500
C1533       C  0.97390530  0.91506385  0.24770441     0.35500
C1534       C  0.52818015  0.91491249  0.24737664     0.35500
C1535       C  0.89450803  0.50866449  0.29695068    -0.22000
C1536       C  0.89504347  0.96754942  0.29366301    -0.22000
C1537       C  0.59794169  0.51284240  0.28213110    -0.22000
C1538       C  0.59829858  0.97154547  0.27946411    -0.22000
C1539       C  0.98285829  0.62713763  0.25031164    -0.23000
C1540       C  0.51747291  0.62765585  0.24927016    -0.23000
C1541       C  0.98648099  0.88145562  0.23006308    -0.23000
C1542       C  0.52092432  0.88113066  0.23026890    -0.23000
C1543       C  0.93742620  0.56966938  0.26922703    -0.18400
C1544       C  0.93919674  0.92547045  0.25646248    -0.18400
C1545       C  0.56049564  0.92535625  0.25472689    -0.18400
C1546       C  0.55911959  0.57163411  0.26435076    -0.18400
H1547       H  0.87199911  0.52424560  0.31016030     0.14500
H1548       H  0.87300441  0.94519703  0.30391987     0.14500
H1549       H  0.61792611  0.52940478  0.29118542     0.14500
H1550       H  0.61866445  0.95028228  0.28600547     0.14500
H1551       H  0.96767018  0.65469108  0.24324132     0.12800
H1552       H  0.53435861  0.65572370  0.24107180     0.12800
H1553       H  0.97233807  0.85928567  0.21866385     0.12800
H1554       H  0.53861904  0.85876038  0.21896064     0.12800
H1555       H  0.97310596  0.50382674  0.24202592     0.26100
H1556       H  0.52911800  0.00333110  0.24351073     0.26100
O1557       O  0.69332074  0.83338132  0.02886923    -0.81000
O1558       O  0.81725629  0.71128860  0.01391558    -0.65700
O1559       O  0.74913896  0.79121148  0.48936996    -1.12300
C1560       C  0.67740094  0.67705269  0.49684729     1.05900
O1561       O  0.79880407  0.65912211  0.48674298    -0.78900
O1562       O  0.76569251  0.71050763  0.42162322    -0.66500
Ni1563     Ni  0.74203627  0.83201966  0.02563741     1.34900
C1564       C  0.74728585  0.74076070  0.40614898     0.84600
O1565       O  0.81836810  0.79469609  0.98568060    -0.79400
O1566       O  0.79028299  0.83851282  0.02494181    -0.89700
C1567       C  0.82167837  0.67702173  0.50015331     0.84200
O1568       O  0.73362233  0.79044978  0.08690153    -0.67900
O1569       O  0.70510722  0.66660997  0.47340469    -0.87200
C1570       C  0.75249438  0.76047511  0.10104131     0.85000
C1571       C  0.81785088  0.82656698  0.00250193     1.06600
H1572       H  0.74034915  0.69401786  0.05285501     0.38400
O1573       O  0.74595068  0.70837171  0.01843397    -1.09800
O1574       O  0.72243059  0.75282917  0.43414895    -0.66500
Ni1575     Ni  0.71275112  0.74895269  0.50330137     1.26300
O1576       O  0.77565812  0.74746815  0.07165278    -0.66700
O1577       O  0.67689766  0.70574670  0.51848617    -0.79000
C1578       C  0.67271065  0.81984620  0.00788921     0.84400
O1579       O  0.67965319  0.78997589  0.49003106    -0.66200
Ni1580     Ni  0.75196781  0.66726548  0.48132215     1.27400
Ni1581     Ni  0.78289588  0.75104089  0.00271944     1.26100
H1582       H  0.75421378  0.80677768  0.45528105     0.39000
O1583       O  0.69580737  0.83173879  0.28260135    -0.81000
O1584       O  0.81618697  0.70612444  0.27232814    -0.65700
O1585       O  0.75236962  0.79064986  0.24041688    -1.12300
C1586       C  0.67870389  0.67694122  0.24777600     1.05900
O1587       O  0.80261826  0.66432941  0.22965598    -0.78900
O1588       O  0.76500907  0.70926438  0.16847123    -0.66500
Ni1589     Ni  0.74506528  0.83338768  0.27510825     1.34900
C1590       C  0.74732317  0.74034968  0.15364573     0.84600
O1591       O  0.82162742  0.78985279  0.24630410    -0.79400
O1592       O  0.79357446  0.84262514  0.26995195    -0.89700
C1593       C  0.82239255  0.67569168  0.25335948     0.84200
O1594       O  0.73883201  0.79476218  0.33848523    -0.67900
O1595       O  0.70639674  0.66319880  0.22804217    -0.87200
C1596       C  0.75389349  0.76121478  0.35364656     0.85000
C1597       C  0.82111805  0.82527246  0.25629823     1.06600
H1598       H  0.74040606  0.69336002  0.30108447     0.38400
O1599       O  0.74741672  0.70870146  0.26702950    -1.09800
O1600       O  0.72467252  0.75454726  0.18241192    -0.66500
Ni1601     Ni  0.71494352  0.75029097  0.25139769     1.26300
O1602       O  0.77417874  0.74392064  0.32558809    -0.66700
O1603       O  0.67822893  0.70874442  0.26473100    -0.79000
C1604       C  0.67633014  0.82137144  0.25799331     0.84400
O1605       O  0.68343669  0.79296519  0.23616319    -0.66200
Ni1606     Ni  0.75434413  0.66775314  0.23008758     1.27400
Ni1607     Ni  0.78485860  0.74893852  0.25691969     1.26100
H1608       H  0.75939365  0.80518708  0.20614010     0.39000
C1609       C  0.64158421  0.87259716  0.21192451    -0.20400
C1610       C  0.64421095  0.84314112  0.25565169    -0.07000
C1611       C  0.61755161  0.83778302  0.29746631     0.13900
C1612       C  0.58924344  0.86313620  0.29502957    -0.20500
C1613       C  0.58767672  0.89451531  0.25222784    -0.07000
C1614       C  0.61375467  0.89884315  0.20980963     0.13900
C1615       C  0.61349633  0.93168816  0.16247354    -0.23800
H1616       H  0.66214388  0.87656111  0.17987795     0.15200
H1617       H  0.56896213  0.85990363  0.32720928     0.15200
C1618       C  0.61919367  0.80565785  0.34467691    -0.23800
H1619       H  0.61416016  0.91576563  0.13333241     0.05400
H1620       H  0.63650909  0.95393589  0.15228210     0.08600
H1621       H  0.59039558  0.95061419  0.16430734     0.08600
H1622       H  0.64169500  0.81369838  0.35793666     0.10600
H1623       H  0.62154671  0.77351185  0.33894928     0.08600
H1624       H  0.59578024  0.80476498  0.37342814     0.05400
C1625       C  0.90601191  0.85574008  0.28024076    -0.20400
C1626       C  0.91220328  0.89753779  0.24995289    -0.07000
C1627       C  0.89016892  0.91363478  0.21795759     0.13900
C1628       C  0.86089834  0.88897305  0.22035412    -0.20500
C1629       C  0.85395886  0.84792217  0.25211032    -0.07000
C1630       C  0.87726429  0.83056973  0.28138007     0.13900
C1631       C  0.87105713  0.78633577  0.31538306    -0.23800
H1632       H  0.92302270  0.84338601  0.30445787     0.15200
H1633       H  0.84323008  0.90198156  0.19736576     0.15200
C1634       C  0.89650479  0.95687410  0.18141801    -0.23800
H1635       H  0.89149816  0.77830506  0.33625589     0.05400
H1636       H  0.87090132  0.76300405  0.29411057     0.08600
H1637       H  0.84601863  0.78354000  0.34167861     0.08600
H1638       H  0.92112564  0.97319299  0.18004372     0.08600
H1639       H  0.87524622  0.97734962  0.19033945     0.08600
H1640       H  0.89751561  0.95345874  0.14449768     0.05400
C1641       C  0.89493134  0.61579427  0.30306375    -0.20400
C1642       C  0.91026204  0.60048286  0.26368820    -0.07000
C1643       C  0.89821449  0.61219033  0.22027737     0.13900
C1644       C  0.87037349  0.63814332  0.21763298    -0.20500
C1645       C  0.85404717  0.65252470  0.25742867    -0.07000
C1646       C  0.86675691  0.64160514  0.30064816     0.13900
C1647       C  0.84974132  0.65486875  0.34515576    -0.23800
H1648       H  0.90435483  0.60627989  0.33628936     0.15200
H1649       H  0.86086223  0.64664529  0.18444192     0.15200
C1650       C  0.91448654  0.59684954  0.17690165    -0.23800
H1651       H  0.86218806  0.64175870  0.37616782     0.05400
H1652       H  0.82232399  0.64318407  0.35675431     0.08600
H1653       H  0.85150086  0.68997497  0.33711644     0.08600
H1654       H  0.91161577  0.56163308  0.18644455     0.08600
H1655       H  0.94221673  0.60707459  0.16527311     0.08600
H1656       H  0.90241302  0.60989224  0.14550630     0.05400
C1657       C  0.60797988  0.62149429  0.21466726    -0.20400
C1658       C  0.58678418  0.60335892  0.26064554    -0.07000
C1659       C  0.59408713  0.61277347  0.30201130     0.13900
C1660       C  0.62356546  0.63853477  0.29651372    -0.20500
C1661       C  0.64590010  0.65460759  0.25082488    -0.07000
C1662       C  0.63746149  0.64709136  0.20920123     0.13900
C1663       C  0.65924302  0.66645172  0.15894027    -0.23800
H1664       H  0.60191192  0.61449822  0.18309485     0.15200
H1665       H  0.62989750  0.64461530  0.32838656     0.15200
C1666       C  0.57195581  0.59512421  0.35236583    -0.23800
H1667       H  0.64766976  0.65946124  0.13042883     0.05400
H1668       H  0.68512757  0.65357486  0.15568242     0.08600
H1669       H  0.66176251  0.70154427  0.15168709     0.08600
H1670       H  0.58753009  0.57568971  0.37653507     0.08600
H1671       H  0.54957903  0.57483049  0.35304191     0.08600
H1672       H  0.56200131  0.62173405  0.36716141     0.05400
C1673       C  0.63326112  0.85839342  0.46119117    -0.20400
C1674       C  0.64031115  0.84142152  0.00515008    -0.07000
C1675       C  0.61984034  0.85149456  0.04605933     0.13900
C1676       C  0.59209458  0.87725918  0.03997778    -0.20500
C1677       C  0.58444758  0.89335836  0.99413482    -0.07000
C1678       C  0.60588444  0.88493403  0.45548055     0.13900
C1679       C  0.60036281  0.90384966  0.40484278    -0.23800
H1680       H  0.64965121  0.85232919  0.42931932     0.15200
H1681       H  0.57700833  0.88630119  0.07081027     0.15200
C1682       C  0.62689233  0.83493255  0.09626557    -0.23800
H1683       H  0.62371701  0.92329232  0.38173934     0.05400
H1684       H  0.59072914  0.86996387  0.89084872     0.08600
H1685       H  0.57822859  0.92438805  0.40389889     0.08600
H1686       H  0.65171537  0.84902822  0.09781152     0.08600
H1687       H  0.62635746  0.79550670  0.60628440     0.08600
H1688       H  0.60662368  0.84302083  0.12437226     0.05400
C1689       C  0.90593387  0.88808530  0.45137401    -0.20400
C1690       C  0.90886891  0.90177378  0.99055534    -0.07000
C1691       C  0.88402288  0.88914296  0.03470003     0.13900
C1692       C  0.85519041  0.86348661  0.03777653    -0.20500
C1693       C  0.85040752  0.85039866  0.99764086    -0.07000
C1694       C  0.87553646  0.86271922  0.95346292     0.13900
C1695       C  0.87201438  0.85324768  0.40772535    -0.23800
H1696       H  0.92493225  0.89921940  0.41752146     0.15200
H1697       H  0.83595235  0.85407189  0.07158400     0.15200
C1698       C  0.88766566  0.90338072  0.07831890    -0.23800
H1699       H  0.89321049  0.86826076  0.37623365     0.05400
H1700       H  0.84647307  0.86297016  0.89922571     0.08600
H1701       H  0.87166996  0.81840812  0.41273592     0.08600
H1702       H  0.88764848  0.93856930  0.06950957     0.08600
H1703       H  0.91328866  0.88937037  0.59078298     0.08600
H1704       H  0.86622931  0.89000961  0.11015869     0.05400
C1705       C  0.91290169  0.64560993  0.46692409    -0.20400
C1706       C  0.91154226  0.60595480  0.50128129    -0.07000
C1707       C  0.88091619  0.59126217  0.04154562     0.13900
C1708       C  0.85228875  0.61614642  0.04125923    -0.20500
C1709       C  0.85386365  0.65558024  0.50302143    -0.07000
C1710       C  0.88443390  0.67090278  0.46780242     0.13900
C1711       C  0.88643856  0.71297318  0.42995931    -0.23800
H1712       H  0.93586298  0.65602624  0.43838004     0.15200
H1713       H  0.82863493  0.60461037  0.06810534     0.15200
C1714       C  0.87779696  0.54975778  0.08084300    -0.23800
H1715       H  0.91199173  0.71972841  0.40444546     0.05400
H1716       H  0.88144467  0.73841043  0.95098495     0.08600
H1717       H  0.86662404  0.71284303  0.40854722     0.08600
H1718       H  0.90210398  0.53318068  0.07964212     0.08600
H1719       H  0.85904642  0.52941303  0.57709386     0.08600
H1720       H  0.87038299  0.55581595  0.11709199     0.05400
C1721       C  0.60331277  0.63666555  0.45586523    -0.20400
C1722       C  0.58782269  0.60491762  0.49802101    -0.07000
C1723       C  0.59940891  0.59918862  0.04211756     0.13900
C1724       C  0.62778269  0.62488143  0.04108369    -0.20500
C1725       C  0.64497599  0.65539583  0.49749199    -0.07000
C1726       C  0.63193370  0.66189807  0.45503631     0.13900
C1727       C  0.64843802  0.69510419  0.40884741    -0.23800
H1728       H  0.59370354  0.64067043  0.42310377     0.15200
H1729       H  0.63740752  0.62088457  0.07385967     0.15200
C1730       C  0.58284215  0.56774237  0.08974199    -0.23800
H1731       H  0.63456865  0.69658253  0.37939237     0.05400
H1732       H  0.67537100  0.68767745  0.39589873     0.08600
H1733       H  0.64826994  0.72685566  0.41573864     0.08600
H1734       H  0.57368870  0.58498276  0.11752731     0.08600
H1735       H  0.56053212  0.54908570  0.08718015     0.08600
H1736       H  0.60196924  0.54512908  0.10228304     0.05400
N1737       N  0.94975172  0.50416827  0.48972665    -0.36700
N1738       N  0.00085691  0.56625853  0.49149564    -0.57300
N1739       N  0.55055055  0.00112468  0.49368572    -0.36700
N1740       N  0.49984623  0.94017381  0.48726556    -0.57300
C1741       C  0.93268339  0.54022089  0.48121836     0.26900
C1742       C  0.93232160  0.97458532  0.47794107     0.26900
C1743       C  0.57147024  0.53579154  0.48659483     0.26900
C1744       C  0.57076846  0.96943363  0.48549436     0.26900
C1745       C  0.97250733  0.58790082  0.50077374     0.35500
C1746       C  0.52673359  0.58711105  0.50052197     0.35500
C1747       C  0.97114795  0.91544072  0.49424821     0.35500
C1748       C  0.52494980  0.91357503  0.49691931     0.35500
C1749       C  0.90421267  0.53361573  0.46339613    -0.22000
C1750       C  0.90394298  0.99212555  0.46143808    -0.22000
C1751       C  0.60541380  0.52591470  0.47398323    -0.22000
C1752       C  0.60498168  0.98408546  0.47336027    -0.22000
C1753       C  0.98050342  0.62309464  0.51500875    -0.23000
C1754       C  0.51500400  0.62276307  0.51448217    -0.23000
C1755       C  0.97818083  0.87287675  0.50729950    -0.23000
C1756       C  0.51239129  0.87169145  0.50886726    -0.23000
C1757       C  0.93995161  0.57727321  0.49425381    -0.18400
C1758       C  0.93910789  0.93105681  0.48709448    -0.18400
C1759       C  0.55940320  0.92674370  0.49267951    -0.18400
C1760       C  0.56101152  0.57507472  0.49484327    -0.18400
H1761       H  0.88505151  0.55601311  0.45413392     0.14500
H1762       H  0.88449993  0.97632576  0.45047168     0.14500
H1763       H  0.62821566  0.54646912  0.46686482     0.14500
H1764       H  0.62741314  0.96630303  0.46572464     0.14500
H1765       H  0.96336303  0.64667029  0.52448775     0.12800
H1766       H  0.52971801  0.64591679  0.52364627     0.12800
H1767       H  0.96056450  0.84561957  0.51470954     0.12800
H1768       H  0.52640782  0.84328974  0.51773734     0.12800
H1769       H  0.96875148  0.49823862  0.50960648     0.26100
H1770       H  0.52447679  0.99763271  0.50928283     0.26100
N1771       N  0.95030082  0.49751613  0.76077737    -0.36700
N1772       N  0.00147375  0.55841630  0.76393235    -0.57300
N1773       N  0.55204995  0.99523459  0.75588684    -0.36700
N1774       N  0.49983616  0.93327080  0.75669142    -0.57300
C1775       C  0.93041497  0.52749126  0.77459701     0.26900
C1776       C  0.92967339  0.96218814  0.77022072     0.26900
C1777       C  0.57043124  0.52522649  0.76564921     0.26900
C1778       C  0.56939616  0.95926884  0.76331439     0.26900
C1779       C  0.97566610  0.58460505  0.75735696     0.35500
C1780       C  0.53023400  0.58356419  0.75439087     0.35500
C1781       C  0.97375410  0.91385215  0.74631635     0.35500
C1782       C  0.52801562  0.91169752  0.74619194     0.35500
C1783       C  0.89682900  0.51096898  0.79346125    -0.22000
C1784       C  0.89640219  0.96959750  0.79106712    -0.22000
C1785       C  0.59988270  0.50821778  0.77919163    -0.22000
C1786       C  0.59920958  0.96661020  0.77779154    -0.22000
C1787       C  0.98786860  0.62665693  0.74459137    -0.23000
C1788       C  0.52258407  0.62599469  0.74282913    -0.23000
C1789       C  0.98537483  0.87947008  0.72946778    -0.23000
C1790       C  0.51978134  0.87787047  0.72985028    -0.23000
C1791       C  0.94105567  0.57062886  0.76513208    -0.18400
C1792       C  0.93931884  0.92550856  0.75494273    -0.18400
C1793       C  0.56062800  0.92117722  0.75335977    -0.18400
C1794       C  0.56284856  0.56843834  0.75871157    -0.18400
H1795       H  0.87475446  0.52738209  0.80635527     0.14500
H1796       H  0.87390142  0.94791936  0.80181867     0.14500
H1797       H  0.62010335  0.52432251  0.78830973     0.14500
H1798       H  0.61890056  0.94457566  0.78545655     0.14500
H1799       H  0.97326191  0.65475087  0.73766548     0.12800
H1800       H  0.54013192  0.65351070  0.73427404     0.12800
H1801       H  0.97061149  0.85758314  0.71852331     0.12800
H1802       H  0.53681076  0.85464769  0.71914803     0.12800
H1803       H  0.97500904  0.50297677  0.73906833     0.26100
H1804       H  0.53141358  0.00061832  0.73906242     0.26100
O1805       O  0.69409760  0.83328941  0.53061699    -0.81000
O1806       O  0.81827400  0.71219360  0.51039518    -0.65700
O1807       O  0.74864614  0.79056157  0.98960321    -1.12300
C1808       C  0.67718713  0.67602095  0.99726127     1.05900
O1809       O  0.79882426  0.65893432  0.98821500    -0.78900
O1810       O  0.76564815  0.70904987  0.92263557    -0.66500
Ni1811     Ni  0.74297854  0.83195089  0.52632082     1.34900
C1812       C  0.74734697  0.73918790  0.90662521     0.84600
O1813       O  0.81911140  0.79564017  0.48353464    -0.79400
O1814       O  0.79140027  0.83825470  0.52489197    -0.89700
C1815       C  0.82122735  0.67653896  0.00276692     0.84200
O1816       O  0.73517756  0.78950823  0.58671152    -0.67900
O1817       O  0.70507181  0.66506363  0.97477909    -0.87200
C1818       C  0.75453398  0.75982113  0.59982761     0.85000
C1819       C  0.81885037  0.82675921  0.50160926     1.06600
H1820       H  0.74149661  0.69444446  0.55169092     0.38400
O1821       O  0.74667570  0.70896516  0.51731014    -1.09800
O1822       O  0.72248842  0.75168329  0.93419147    -0.66500
Ni1823     Ni  0.71222906  0.74841347  0.00319774     1.26300
O1824       O  0.77759877  0.74753503  0.56971114    -0.66700
O1825       O  0.67639289  0.70528104  0.01814414    -0.79000
C1826       C  0.67334507  0.82011119  0.50955742     0.84400
O1827       O  0.67925239  0.78947252  0.98878485    -0.66200
Ni1828     Ni  0.75190185  0.66638290  0.98278404     1.27400
Ni1829     Ni  0.78367696  0.75180041  0.50084558     1.26100
H1830       H  0.75418434  0.80571981  0.95538507     0.39000
O1831       O  0.69485638  0.82599571  0.78428759    -0.81000
O1832       O  0.81792208  0.70499768  0.77280734    -0.65700
O1833       O  0.75293914  0.78801106  0.74058671    -1.12300
C1834       C  0.68240335  0.67310863  0.74397666     1.05900
O1835       O  0.80658633  0.66476410  0.72711783    -0.78900
O1836       O  0.76844442  0.70887802  0.66626401    -0.66500
Ni1837     Ni  0.74421859  0.83078932  0.77502874     1.34900
C1838       C  0.74991238  0.73919778  0.65206442     0.84600
O1839       O  0.82168724  0.78876864  0.74888502    -0.79400
O1840       O  0.79255858  0.84263298  0.76829043    -0.89700
C1841       C  0.82551508  0.67582346  0.75212130     0.84200
O1842       O  0.73971072  0.79316481  0.83862510    -0.67900
O1843       O  0.71065809  0.66041802  0.72439098    -0.87200
C1844       C  0.75411573  0.75913296  0.85401576     0.85000
C1845       C  0.82044426  0.82503705  0.75689297     1.06600
H1846       H  0.74239026  0.69004695  0.79922386     0.38400
O1847       O  0.74956358  0.70612643  0.76544659    -1.09800
O1848       O  0.72672287  0.75222794  0.68117942    -0.66500
Ni1849     Ni  0.71639820  0.74690010  0.75021142     1.26300
O1850       O  0.77378258  0.74099796  0.82622302    -0.66700
O1851       O  0.68077945  0.70447697  0.76183230    -0.79000
C1852       C  0.67609553  0.81640243  0.75832039     0.84400
O1853       O  0.68415494  0.78890702  0.73536729    -0.66200
Ni1854     Ni  0.75830140  0.66639250  0.72711784     1.27400
Ni1855     Ni  0.78595084  0.74711335  0.75738095     1.26100
H1856       H  0.76022386  0.80270191  0.70638789     0.39000
C1857       C  0.64164960  0.86773751  0.71170836    -0.20400
C1858       C  0.64388941  0.83808308  0.75549661    -0.07000
C1859       C  0.61682184  0.83264508  0.79688556     0.13900
C1860       C  0.58850794  0.85802524  0.79392706    -0.20500
C1861       C  0.58735767  0.88964152  0.75110137    -0.07000
C1862       C  0.61388956  0.89409152  0.70914220     0.13900
C1863       C  0.61423992  0.92729892  0.66184624    -0.23800
H1864       H  0.66251582  0.87186626  0.67999811     0.15200
H1865       H  0.56794370  0.85472417  0.82578852     0.15200
C1866       C  0.61803115  0.80041162  0.84419941    -0.23800
H1867       H  0.61542012  0.91170545  0.63232604     0.05400
H1868       H  0.63721270  0.94948398  0.65252667     0.08600
H1869       H  0.59113917  0.94623665  0.66321944     0.08600
H1870       H  0.64018775  0.80848775  0.85813123     0.10600
H1871       H  0.62069431  0.76833503  0.83833716     0.08600
H1872       H  0.59430764  0.79930839  0.87250014     0.05400
C1873       C  0.90536449  0.85621986  0.78024858    -0.20400
C1874       C  0.91155894  0.89789993  0.74964149    -0.07000
C1875       C  0.88906805  0.91405207  0.71832343     0.13900
C1876       C  0.85961771  0.88940334  0.72138201    -0.20500
C1877       C  0.85293927  0.84828234  0.75305118    -0.07000
C1878       C  0.87647066  0.83103916  0.78201838     0.13900
C1879       C  0.87038183  0.78692044  0.81644242    -0.23800
H1880       H  0.92262959  0.84387563  0.80407643     0.15200
H1881       H  0.84176150  0.90233712  0.69866993     0.15200
C1882       C  0.89518442  0.95722648  0.68162682    -0.23800
H1883       H  0.89082477  0.77915956  0.83736695     0.05400
H1884       H  0.87027246  0.76323495  0.79560256     0.08600
H1885       H  0.84536019  0.78422607  0.84274982     0.08600
H1886       H  0.92003533  0.97343983  0.67942188     0.08600
H1887       H  0.87415296  0.97783941  0.69102899     0.08600
H1888       H  0.89553803  0.95374623  0.64491234     0.05400
C1889       C  0.89824149  0.61551660  0.80089868    -0.20400
C1890       C  0.91449034  0.60238357  0.76025753    -0.07000
C1891       C  0.90343447  0.61653278  0.71624445     0.13900
C1892       C  0.87532655  0.64212145  0.71438408    -0.20500
C1893       C  0.85781499  0.65386719  0.75550534    -0.07000
C1894       C  0.86988679  0.64113656  0.79917451     0.13900
C1895       C  0.85200779  0.65227451  0.84469934    -0.23800
H1896       H  0.90697186  0.60426824  0.83453425     0.15200
H1897       H  0.86640672  0.65219473  0.68078578     0.15200
C1898       C  0.92085317  0.60380751  0.67150410    -0.23800
H1899       H  0.86415955  0.63818206  0.87578063     0.05400
H1900       H  0.82472062  0.64010928  0.85517495     0.08600
H1901       H  0.85328658  0.68725061  0.83843547     0.08600
H1902       H  0.91861248  0.56870716  0.67881568     0.08600
H1903       H  0.94844374  0.61467459  0.66124890     0.08600
H1904       H  0.90918817  0.61806190  0.63997992     0.05400
C1905       C  0.61398810  0.61460398  0.70980236    -0.20400
C1906       C  0.59112496  0.59922527  0.75502010    -0.07000
C1907       C  0.59711364  0.61056233  0.79600332     0.13900
C1908       C  0.62646883  0.63629199  0.79083662    -0.20500
C1909       C  0.65025338  0.64995047  0.74610635    -0.07000
C1910       C  0.64362985  0.63971503  0.70484411     0.13900
C1911       C  0.66748298  0.65568773  0.65548282    -0.23800
H1912       H  0.60905286  0.60585021  0.67857127     0.15200
H1913       H  0.63155249  0.64423331  0.82244817     0.15200
C1914       C  0.57378889  0.59492229  0.84580863    -0.23800
H1915       H  0.65697959  0.64743265  0.62685966     0.05400
H1916       H  0.69267244  0.64126256  0.65557764     0.08600
H1917       H  0.67123774  0.69086079  0.64558805     0.08600
H1918       H  0.58852121  0.57620693  0.87175143     0.08600
H1919       H  0.55154306  0.57443917  0.84645263     0.08600
H1920       H  0.56370018  0.62252942  0.85852899     0.05400
C1921       C  0.63120563  0.85524600  0.95987646    -0.20400
C1922       C  0.64111567  0.84193173  0.50694867    -0.07000
C1923       C  0.61968209  0.84972765  0.54854509     0.13900
C1924       C  0.59196702  0.87567129  0.54291379    -0.20500
C1925       C  0.58543591  0.89422470  0.49680029    -0.07000
C1926       C  0.60369796  0.88155240  0.95372751     0.13900
C1927       C  0.59673997  0.89748165  0.90351120    -0.23800
H1928       H  0.64673142  0.84735591  0.92854544     0.15200
H1929       H  0.57602739  0.88287487  0.57439602     0.15200
C1930       C  0.62577952  0.83059189  0.59889244    -0.23800
H1931       H  0.61989036  0.91570453  0.87811820     0.05400
H1932       H  0.59554263  0.87788365  0.38900039     0.08600
H1933       H  0.57484422  0.91837882  0.90210678     0.08600
H1934       H  0.65047353  0.84368799  0.60218691     0.08600
H1935       H  0.62762782  0.79975717  0.10576724     0.08600
H1936       H  0.60513681  0.83758178  0.62735181     0.05400
C1937       C  0.90464978  0.88814652  0.95059477    -0.20400
C1938       C  0.91019533  0.90055086  0.49207070    -0.07000
C1939       C  0.88534437  0.88709802  0.53610371     0.13900
C1940       C  0.85645534  0.86186282  0.53836780    -0.20500
C1941       C  0.85155487  0.85007428  0.49746924    -0.07000
C1942       C  0.87671489  0.86317538  0.45338541     0.13900
C1943       C  0.87098111  0.85125837  0.90857810    -0.23800
H1944       H  0.92369807  0.89856502  0.91669756     0.15200
H1945       H  0.83720738  0.85188211  0.57211884     0.15200
C1946       C  0.88892424  0.90035111  0.58034255    -0.23800
H1947       H  0.89214847  0.86580790  0.87685996     0.05400
H1948       H  0.84755638  0.86555966  0.39875102     0.08600
H1949       H  0.87085029  0.81628525  0.91479069     0.08600
H1950       H  0.88906502  0.93551349  0.57215714     0.08600
H1951       H  0.91210931  0.89280824  0.08878307     0.08600
H1952       H  0.86738457  0.88672319  0.61194833     0.05400
C1953       C  0.91268665  0.64518998  0.97067675    -0.20400
C1954       C  0.91108963  0.60528668  0.00467774    -0.07000
C1955       C  0.88174532  0.59225919  0.53888573     0.13900
C1956       C  0.85298437  0.61688446  0.53861100    -0.20500
C1957       C  0.85343402  0.65512999  0.00603230    -0.07000
C1958       C  0.88417658  0.67045570  0.97115484     0.13900
C1959       C  0.88629917  0.71242669  0.93309041    -0.23800
H1960       H  0.93580694  0.65570208  0.94245450     0.15200
H1961       H  0.82953453  0.60552620  0.56595760     0.15200
C1962       C  0.87929852  0.55156164  0.57922526    -0.23800
H1963       H  0.91199820  0.71925358  0.90794608     0.05400
H1964       H  0.88193226  0.73889890  0.44800003     0.08600
H1965       H  0.86678320  0.71207670  0.91124934     0.08600
H1966       H  0.90373285  0.53524803  0.57789847     0.08600
H1967       H  0.85765185  0.52827954  0.07720177     0.08600
H1968       H  0.87244169  0.55870854  0.61494938     0.05400
C1969       C  0.60404112  0.63374066  0.95595593    -0.20400
C1970       C  0.58788149  0.60308028  0.99873394    -0.07000
C1971       C  0.59999975  0.59969903  0.54108974     0.13900
C1972       C  0.62853077  0.62499532  0.54017026    -0.20500
C1973       C  0.64486954  0.65412960  0.99784100    -0.07000
C1974       C  0.63252036  0.65930429  0.95498675     0.13900
C1975       C  0.64943025  0.69173028  0.90835135    -0.23800
H1976       H  0.59494079  0.63674604  0.92293142     0.15200
H1977       H  0.63879048  0.61967208  0.57249200     0.15200
C1978       C  0.58394551  0.56725630  0.58822624    -0.23800
H1979       H  0.63605668  0.69228066  0.87860740     0.05400
H1980       H  0.67649632  0.68426520  0.89639967     0.08600
H1981       H  0.64892251  0.72389140  0.91420570     0.08600
H1982       H  0.57534235  0.58356870  0.61704637     0.08600
H1983       H  0.56132218  0.54914788  0.58567732     0.08600
H1984       H  0.60320461  0.54425918  0.59936814     0.05400
loop_ 
_geom_bond_atom_site_label_1 
_geom_bond_atom_site_label_2 
_geom_bond_distance 
_geom_bond_site_symmetry_2 
_ccdc_geom_bond_type 
N1           H33   1.038   1_546  S
N1            C5   1.351       .  A
N1          C502   1.352   1_545  A
N2            C9   1.350   1_556  A
N2         C1002   1.350   1_556  A
N3           H34   1.036   1_556  S
N3            C8   1.353       .  A
N3          C503   1.355       .  A
N4           C12   1.350   1_655  A
N4         C1003   1.351       .  A
C5           C13   1.388       .  A
C5           C21   1.414       .  A
C6          N497   1.352       .  A
C6           C22   1.411       .  A
C6           C14   1.386       .  A
C7          N499   1.355       .  A
C7           C15   1.387       .  A
C7           C24   1.417       .  A
C8           C23   1.416       .  A
C8           C16   1.387       .  A
C9           C21   1.412   1_554  A
C9           C17   1.386       .  A
C10         N994   1.350   1_554  A
C10          C24   1.411   1_554  A
C10          C18   1.386       .  A
C11         N996   1.351       .  A
C11          C19   1.386   1_556  A
C11          C22   1.410       .  A
C12          C20   1.387   1_556  A
C12          C23   1.412       .  A
C13         C510   1.374   1_545  A
C13          H25   1.083       .  S
C14         C509   1.374       .  A
C14          H26   1.082       .  S
C15         C512   1.374   1_545  A
C15          H27   1.082       .  S
C16         C511   1.374       .  A
C16          H28   1.082       .  S
C17        C1010   1.375       .  A
C17          H29   1.082       .  S
C18        C1009   1.375   1_455  A
C18          H30   1.082       .  S
C19        C1012   1.375       .  A
C19          H31   1.082       .  S
C20        C1011   1.375   1_455  A
C20          H32   1.082       .  S
C21         C466   1.487   1_556  S
C22         C202   1.484       .  S
C23         C189   1.484       .  S
C24         C482   1.488       .  S
N35          H67   1.040   1_565  S
N35          C39   1.351   1_565  A
N35         C536   1.351       .  A
N36          C43   1.349       .  A
N36        C1036   1.349       .  A
N37          H68   1.037       .  S
N37          C42   1.353       .  A
N37         C537   1.354       .  A
N38          C46   1.349   1_655  A
N38        C1037   1.350       .  A
C39          C47   1.386       .  A
C39          C55   1.410       .  A
C40         N531   1.351       .  A
C40          C56   1.414       .  A
C40          C48   1.388       .  A
C41         N533   1.354   1_545  A
C41          C49   1.387       .  A
C41          C58   1.416       .  A
C42          C57   1.417       .  A
C42          C50   1.388       .  A
C43          C55   1.408       .  A
C43          C51   1.385       .  A
C44        N1028   1.349   1_455  A
C44          C58   1.410       .  A
C44          C52   1.386       .  A
C45        N1030   1.350       .  A
C45          C53   1.386       .  A
C45          C56   1.412       .  A
C46          C54   1.386       .  A
C46          C57   1.410       .  A
C47         C544   1.375   1_545  A
C47          H59   1.082       .  S
C48         C543   1.375       .  A
C48          H60   1.082       .  S
C49         C546   1.374   1_545  A
C49          H61   1.082       .  S
C50         C545   1.374       .  A
C50          H62   1.082       .  S
C51        C1044   1.376       .  A
C51          H63   1.082       .  S
C52        C1043   1.376   1_455  A
C52          H64   1.082       .  S
C53        C1046   1.376       .  A
C53          H65   1.082       .  S
C54        C1045   1.376   1_455  A
C54          H66   1.082       .  S
C55         C154   1.482       .  S
C56         C138   1.490       .  S
C57         C125   1.483       .  S
C58         C170   1.485       .  S
O69         Ni75   1.927       .  S
O69          C90   1.271       .  A
O70         Ni93   1.905       .  S
O70         C327   1.266       .  A
O71          H94   0.967       .  S
O71         Ni87   1.909       .  S
O71        Ni323   1.917       .  S
O71        Ni341   1.904       .  S
C72         C237   1.472       .  S
C72          O89   1.265       .  A
C72          O81   1.269       .  A
O73         Ni92   1.921       .  S
O73          C79   1.270       .  A
O74         Ni92   1.901       .  S
O74          C76   1.272       .  A
Ni75         O78   1.933       .  S
Ni75         O80   1.898       .  S
Ni75        O319   1.918   1_554  S
C76         C108   1.467       .  S
C76          O86   1.279       .  A
O77         Ni93   1.903   1_556  S
O77          C83   1.267   1_556  A
O78          C83   1.274       .  A
C79         C221   1.468       .  S
C79         O318   1.266       .  A
O80          C82   1.268       .  A
O81         Ni92   1.934       .  S
C82         C102   1.471       .  S
C82          O88   1.277       .  A
C83         C205   1.478   1_554  S
H84          O85   0.967       .  S
O85         Ni93   1.927       .  S
O85        Ni335   1.911       .  S
O85        Ni340   1.924   1_554  S
O86         Ni87   1.947       .  S
Ni87         O91   1.903       .  S
Ni87         O89   1.910       .  S
Ni87        O333   1.910       .  S
O88         Ni93   1.948       .  S
C90         C186   1.478       .  S
C90         O339   1.267   1_554  A
O91         C338   1.267       .  A
Ni92        O333   1.923       .  S
Ni93        O319   1.905   1_554  S
O95        Ni101   1.930       .  S
O95         C116   1.269       .  A
O96        Ni119   1.901       .  S
O96         C105   1.265       .  A
O97         H120   0.966       .  S
O97        Ni101   1.927       .  S
O97        Ni119   1.917       .  S
O97        Ni113   1.913       .  S
C98         C173   1.476       .  S
C98         O115   1.267       .  A
C98         O107   1.273       .  A
O99        Ni118   1.927       .  S
O99         C105   1.272       .  A
O100       Ni118   1.905       .  S
O100        C102   1.268       .  A
Ni101       O104   1.928       .  S
Ni101       O106   1.907       .  S
C102        O112   1.275       .  A
O103       Ni119   1.907       .  S
O103        C109   1.269       .  A
O104        C109   1.273       .  A
C105        C157   1.481       .  S
O106        C108   1.268       .  A
O107       Ni118   1.935       .  S
C108        O114   1.271       .  A
C109        C141   1.474       .  S
H110        O111   0.967       .  S
O111       Ni119   1.915       .  S
O111       Ni113   1.909       .  S
O111       Ni118   1.923       .  S
O112       Ni113   1.940       .  S
Ni113       O117   1.902       .  S
Ni113       O115   1.905       .  S
O114       Ni119   1.925       .  S
C116        C122   1.469       .  S
C116        O117   1.263       .  A
C121        C122   1.402       .  A
C121        C126   1.403       .  A
C121        H128   1.085       .  S
C122        C123   1.411       .  A
C123        C124   1.402       .  A
C123        C130   1.507       .  S
C124        C125   1.401       .  A
C124        H129   1.084       .  S
C125        C126   1.414       .  A
C126        C127   1.508       .  S
C127        H131   1.110       .  S
C127        H132   1.110       .  S
C127        H133   1.109       .  S
C130        H134   1.110       .  S
C130        H135   1.110       .  S
C130        H136   1.111       .  S
C137        C138   1.404       .  A
C137        C142   1.404       .  A
C137        H144   1.084       .  S
C138        C139   1.417       .  A
C139        C140   1.401       .  A
C139        C146   1.509       .  S
C140        C141   1.401       .  A
C140        H145   1.085       .  S
C141        C142   1.412       .  A
C142        C143   1.505       .  S
C143        H147   1.110       .  S
C143        H148   1.109       .  S
C143        H149   1.111       .  S
C146        H150   1.108       .  S
C146        H151   1.110       .  S
C146        H152   1.109       .  S
C153        C154   1.401       .  A
C153        C158   1.406       .  A
C153        H160   1.084       .  S
C154        C155   1.410       .  A
C155        C156   1.398       .  A
C155        C162   1.509       .  S
C156        C157   1.405       .  A
C156        H161   1.084       .  S
C157        C158   1.419       .  A
C158        C159   1.508       .  S
C159        H163   1.111       .  S
C159        H164   1.110       .  S
C159        H165   1.108       .  S
C162        H166   1.110       .  S
C162        H167   1.110       .  S
C162        H168   1.111       .  S
C169        C170   1.401       .  A
C169        C174   1.402       .  A
C169        H176   1.084       .  S
C170        C171   1.414       .  A
C171        C172   1.405       .  A
C171        C178   1.508       .  S
C172        C173   1.405       .  A
C172        H177   1.084       .  S
C173        C174   1.413       .  A
C174        C175   1.508       .  S
C175        H179   1.110       .  S
C175        H180   1.109       .  S
C175        H181   1.111       .  S
C178        H182   1.110       .  S
C178        H183   1.108       .  S
C178        H184   1.110       .  S
C185        C190   1.403       .  A
C185        C434   1.403       .  A
C185        H192   1.085       .  S
C186        C187   1.416       .  A
C186        C433   1.405   1_554  A
C187        C188   1.402       .  A
C187        C194   1.509       .  S
C188        C189   1.401   1_554  A
C188        H193   1.084       .  S
C189        C438   1.413       .  A
C190        C437   1.413       .  A
C190        C191   1.507       .  S
C191        H195   1.110       .  S
C191        H197   1.108       .  S
C191        H444   1.108       .  S
C194        H198   1.109       .  S
C194        H200   1.111       .  S
C194        H447   1.110       .  S
H196        C439   1.107       .  S
H199        C442   1.110       .  S
C201        C450   1.402       .  A
C201        C454   1.407       .  A
C201        H208   1.084       .  S
C202        C203   1.411   1_556  A
C202        C449   1.401       .  A
C203        C204   1.400       .  A
C203        C210   1.507       .  S
C204        C205   1.403   1_554  A
C204        H209   1.084       .  S
C205        C206   1.417       .  A
C206        C449   1.406       .  A
C206        C455   1.507       .  S
C207        C454   1.507       .  S
C207        H211   1.110       .  S
C207        H213   1.109       .  S
C207        H460   1.110       .  S
C210        H214   1.110       .  S
C210        H216   1.111       .  S
C210        H463   1.110       .  S
H212        C455   1.110       .  S
H215        C458   1.110       .  S
C217        C218   1.403       .  A
C217        C222   1.403       .  A
C217        H224   1.084       .  S
C218        C467   1.416       .  A
C218        C269   1.485       .  S
C219        C220   1.401       .  A
C219        C466   1.416       .  A
C219        C226   1.509       .  S
C220        C469   1.400       .  A
C220        H225   1.085       .  S
C221        C222   1.411       .  A
C221        C468   1.400       .  A
C222        C223   1.505       .  S
C223        H227   1.111       .  S
C223        H229   1.110       .  S
C223        H476   1.110       .  S
C226        H230   1.108       .  S
C226        H232   1.110       .  S
C226        H479   1.110       .  S
H228        C471   1.110       .  S
H231        C474   1.110       .  S
C233        C234   1.403       .  A
C233        C238   1.404       .  A
C233        H240   1.083       .  S
C234        C483   1.414       .  A
C234        C272   1.485       .  S
C235        C236   1.403       .  A
C235        C482   1.415   1_554  A
C235        C242   1.508       .  S
C236        C485   1.401   1_554  A
C236        H241   1.084       .  S
C237        C238   1.412       .  A
C237        C484   1.401       .  A
C238        C239   1.507       .  S
C239        H243   1.110       .  S
C239        H244   1.110       .  S
C239        H245   1.111       .  S
C242        H246   1.111       .  S
C242        H247   1.108       .  S
C242        H248   1.111       .  S
N249        H281   1.038   1_545  S
N249        C750   1.352   1_545  A
N249        C253   1.351       .  A
N250        C257   1.350       .  A
N250       C1250   1.350       .  A
N251        H282   1.036       .  S
N251        C256   1.353       .  A
N251        C751   1.354       .  A
N252       C1251   1.351       .  A
N252        C260   1.350   1_655  A
C253        C261   1.388       .  A
C253        C269   1.414       .  A
C254        N745   1.352       .  A
C254        C270   1.413       .  A
C254        C262   1.387       .  A
C255        N747   1.354       .  A
C255        C263   1.387       .  A
C255        C272   1.416       .  A
C256        C271   1.416       .  A
C256        C264   1.388       .  A
C257        C269   1.411       .  A
C257        C265   1.386       .  A
C258       N1242   1.350       .  A
C258        C272   1.410       .  A
C258        C266   1.386       .  A
C259       N1244   1.351       .  A
C259        C267   1.385       .  A
C259        C270   1.411       .  A
C260        C268   1.387       .  A
C260        C271   1.412       .  A
C261        C758   1.374   1_545  A
C261        H273   1.083       .  S
C262        C757   1.374       .  A
C262        H274   1.082       .  S
C263        C760   1.374   1_545  A
C263        H275   1.082       .  S
C264        C759   1.374       .  A
C264        H276   1.082       .  S
C265       C1258   1.374       .  A
C265        H277   1.082       .  S
C266       C1257   1.374   1_455  A
C266        H278   1.082       .  S
C267       C1260   1.376       .  A
C267        H279   1.082       .  S
C268       C1259   1.376   1_455  A
C268        H280   1.082       .  S
C270        C450   1.486       .  S
C271        C437   1.484       .  S
N283        H315   1.039   1_565  S
N283        C784   1.352       .  A
N283        C287   1.352   1_565  A
N284        C291   1.349       .  A
N284       C1284   1.349       .  A
N285        H316   1.038       .  S
N285        C290   1.353       .  A
N285        C785   1.353       .  A
N286       C1285   1.350       .  A
N286        C294   1.350   1_655  A
C287        C295   1.386       .  A
C287        C303   1.411       .  A
C288        N779   1.352       .  A
C288        C304   1.415       .  A
C288        C296   1.388       .  A
C289        N781   1.353   1_545  A
C289        C297   1.387       .  A
C289        C306   1.414       .  A
C290        C305   1.416       .  A
C290        C298   1.388       .  A
C291        C303   1.408       .  A
C291        C299   1.385       .  A
C292       N1276   1.349       .  A
C292        C306   1.409       .  A
C292        C300   1.386       .  A
C293       N1278   1.350       .  A
C293        C301   1.387       .  A
C293        C304   1.413       .  A
C294        C302   1.385       .  A
C294        C305   1.410       .  A
C295        C792   1.375   1_545  A
C295        H307   1.082       .  S
C296        C791   1.375       .  A
C296        H308   1.082       .  S
C297        C794   1.374   1_545  A
C297        H309   1.082       .  S
C298        C793   1.374       .  A
C298        H310   1.082       .  S
C299       C1292   1.376       .  A
C299        H311   1.082       .  S
C300       C1291   1.376   1_455  A
C300        H312   1.082       .  S
C301       C1294   1.376       .  A
C301        H313   1.082       .  S
C302       C1293   1.376   1_455  A
C302        H314   1.082       .  S
C303        C402   1.483       .  S
C304        C386   1.491       .  S
C305        C373   1.485       .  S
C306        C418   1.482       .  S
O317       Ni323   1.929       .  S
O317        C338   1.271       .  A
O318       Ni341   1.902       .  S
O319        H342   0.967       .  S
O319       Ni335   1.909   1_556  S
C320        C485   1.472       .  S
C320        O337   1.265   1_556  A
C320        O329   1.270       .  A
O321       Ni340   1.922       .  S
O321        C327   1.270   1_556  A
O322       Ni340   1.901       .  S
O322        C324   1.271       .  A
Ni323       O326   1.934       .  S
Ni323       O328   1.895       .  S
C324        C356   1.466       .  S
C324        O334   1.279       .  A
O325       Ni341   1.905       .  S
O325        C331   1.268       .  A
O326        C331   1.274       .  A
C327        C469   1.470       .  S
O328        C330   1.268       .  A
O329       Ni340   1.934       .  S
C330        C350   1.466       .  S
C330        O336   1.276       .  A
C331        C453   1.480       .  S
H332        O333   0.967       .  S
O333       Ni341   1.929       .  S
O334       Ni335   1.947   1_556  S
Ni335       O339   1.906   1_554  S
Ni335       O337   1.908       .  S
O336       Ni341   1.945       .  S
C338        C434   1.475       .  S
O343       Ni349   1.931       .  S
O343        C364   1.269       .  A
O344       Ni367   1.904       .  S
O344        C353   1.266       .  A
O345        H368   0.966       .  S
O345       Ni349   1.926       .  S
O345       Ni367   1.917       .  S
O345       Ni361   1.910       .  S
C346        C421   1.474       .  S
C346        O363   1.268       .  A
C346        O355   1.274       .  A
O347       Ni366   1.927       .  S
O347        C353   1.272       .  A
O348       Ni366   1.904       .  S
O348        C350   1.267       .  A
Ni349       O352   1.927       .  S
Ni349       O354   1.906       .  S
C350        O360   1.274       .  A
O351       Ni367   1.906       .  S
O351        C357   1.269       .  A
O352        C357   1.274       .  A
C353        C405   1.482       .  S
O354        C356   1.268       .  A
O355       Ni366   1.933       .  S
C356        O362   1.271       .  A
C357        C389   1.474       .  S
H358        O359   0.967       .  S
O359       Ni367   1.913       .  S
O359       Ni361   1.910       .  S
O359       Ni366   1.921       .  S
O360       Ni361   1.933       .  S
Ni361       O365   1.907       .  S
Ni361       O363   1.902       .  S
O362       Ni367   1.924       .  S
C364        C370   1.473       .  S
C364        O365   1.264       .  A
C369        C370   1.403       .  A
C369        C374   1.404       .  A
C369        H376   1.085       .  S
C370        C371   1.412       .  A
C371        C372   1.404       .  A
C371        C378   1.507       .  S
C372        C373   1.402       .  A
C372        H377   1.084       .  S
C373        C374   1.414       .  A
C374        C375   1.508       .  S
C375        H379   1.109       .  S
C375        H380   1.110       .  S
C375        H381   1.109       .  S
C378        H382   1.110       .  S
C378        H383   1.110       .  S
C378        H384   1.110       .  S
C385        C386   1.404       .  A
C385        C390   1.403       .  A
C385        H392   1.084       .  S
C386        C387   1.418       .  A
C387        C388   1.401       .  A
C387        C394   1.509       .  S
C388        C389   1.401       .  A
C388        H393   1.085       .  S
C389        C390   1.413       .  A
C390        C391   1.506       .  S
C391        H395   1.110       .  S
C391        H396   1.109       .  S
C391        H397   1.111       .  S
C394        H398   1.108       .  S
C394        H399   1.110       .  S
C394        H400   1.108       .  S
C401        C402   1.402       .  A
C401        C406   1.407       .  A
C401        H408   1.084       .  S
C402        C403   1.410       .  A
C403        C404   1.399       .  A
C403        C410   1.509       .  S
C404        C405   1.405       .  A
C404        H409   1.084       .  S
C405        C406   1.419       .  A
C406        C407   1.508       .  S
C407        H411   1.111       .  S
C407        H412   1.110       .  S
C407        H413   1.109       .  S
C410        H414   1.110       .  S
C410        H415   1.110       .  S
C410        H416   1.111       .  S
C417        C418   1.402       .  A
C417        C422   1.402       .  A
C417        H424   1.084       .  S
C418        C419   1.414       .  A
C419        C420   1.402       .  A
C419        C426   1.508       .  S
C420        C421   1.404       .  A
C420        H425   1.084       .  S
C421        C422   1.413       .  A
C422        C423   1.508       .  S
C423        H427   1.106       .  S
C423        H428   1.109       .  S
C423        H429   1.111       .  S
C426        H430   1.111       .  S
C426        H431   1.108       .  S
C426        H432   1.110       .  S
C433        C438   1.404       .  A
C433        H440   1.085       .  S
C434        C435   1.415       .  A
C435        C436   1.402       .  A
C435        C442   1.508       .  S
C436        C437   1.401       .  A
C436        H441   1.084       .  S
C438        C439   1.506       .  S
C439        H443   1.110       .  S
C439        H445   1.108       .  S
C442        H446   1.109       .  S
C442        H448   1.111       .  S
C449        H456   1.084       .  S
C450        C451   1.410       .  A
C451        C452   1.400       .  A
C451        C458   1.506       .  S
C452        C453   1.404       .  A
C452        H457   1.084       .  S
C453        C454   1.417       .  A
C455        H459   1.110       .  S
C455        H461   1.109       .  S
C458        H462   1.110       .  S
C458        H464   1.111       .  S
C465        C466   1.403   1_556  A
C465        C470   1.404       .  A
C465        H472   1.084       .  S
C467        C468   1.400       .  A
C467        C474   1.509       .  S
C468        H473   1.085       .  S
C469        C470   1.411   1_554  A
C470        C471   1.506       .  S
C471        H475   1.111       .  S
C471        H477   1.110       .  S
C474        H478   1.108       .  S
C474        H480   1.110       .  S
C481        C482   1.404       .  A
C481        C486   1.405       .  A
C481        H488   1.084       .  S
C483        C484   1.401       .  A
C483        C490   1.508       .  S
C484        H489   1.081       .  S
C485        C486   1.412       .  A
C486        C487   1.507       .  S
C487        H491   1.110       .  S
C487        H492   1.110       .  S
C487        H493   1.111       .  S
C490        H494   1.111       .  S
C490        H495   1.108       .  S
C490        H496   1.110       .  S
N497        H529   1.038   1_556  S
N497        C501   1.351       .  A
N498        C505   1.350   1_556  A
N498       C1498   1.350   1_556  A
N499        H530   1.036   1_546  S
N499        C504   1.353   1_545  A
N500       C1499   1.351       .  A
N500        C508   1.350   1_655  A
C501        C509   1.388       .  A
C501        C517   1.414       .  A
C502        C518   1.411       .  A
C502        C510   1.386       .  A
C503        C511   1.387       .  A
C503        C520   1.418       .  A
C504        C519   1.416       .  A
C504        C512   1.387       .  A
C505        C517   1.412   1_554  A
C505        C513   1.386       .  A
C506       N1490   1.350   1_554  A
C506        C520   1.411   1_554  A
C506        C514   1.386       .  A
C507       N1492   1.351       .  A
C507        C515   1.386   1_556  A
C507        C518   1.410       .  A
C508        C516   1.387   1_556  A
C508        C519   1.412       .  A
C509        H521   1.083       .  S
C510        H522   1.082       .  S
C511        H523   1.082       .  S
C512        H524   1.082       .  S
C513       C1506   1.375       .  A
C513        H525   1.082       .  S
C514       C1505   1.375   1_455  A
C514        H526   1.082       .  S
C515       C1508   1.375       .  A
C515        H527   1.082       .  S
C516       C1507   1.375   1_455  A
C516        H528   1.082       .  S
C517        C962   1.487   1_556  S
C518        C698   1.484       .  S
C519        C685   1.484       .  S
C520        C978   1.488       .  S
N531        H563   1.040       .  S
N531        C535   1.351       .  A
N532        C539   1.349       .  A
N532       C1532   1.349       .  A
N533        H564   1.037   1_565  S
N533        C538   1.353       .  A
N534       C1533   1.350       .  A
N534        C542   1.349   1_655  A
C535        C543   1.386       .  A
C535        C551   1.410       .  A
C536        C552   1.414       .  A
C536        C544   1.388       .  A
C537        C545   1.387       .  A
C537        C554   1.416       .  A
C538        C553   1.417       .  A
C538        C546   1.388       .  A
C539        C551   1.408       .  A
C539        C547   1.385       .  A
C540       N1524   1.349   1_455  A
C540        C554   1.410       .  A
C540        C548   1.386       .  A
C541       N1526   1.350       .  A
C541        C549   1.386       .  A
C541        C552   1.412       .  A
C542        C550   1.386       .  A
C542        C553   1.410       .  A
C543        H555   1.082       .  S
C544        H556   1.082       .  S
C545        H557   1.082       .  S
C546        H558   1.082       .  S
C547       C1540   1.376       .  A
C547        H559   1.082       .  S
C548       C1539   1.376   1_455  A
C548        H560   1.082       .  S
C549       C1542   1.376       .  A
C549        H561   1.082       .  S
C550       C1541   1.376   1_455  A
C550        H562   1.082       .  S
C551        C650   1.482       .  S
C552        C634   1.490       .  S
C553        C621   1.483       .  S
C554        C666   1.485       .  S
O565       Ni571   1.927       .  S
O565        C586   1.271       .  A
O566       Ni589   1.905       .  S
O566        C823   1.266       .  A
O567        H590   0.967       .  S
O567       Ni819   1.917       .  S
O567       Ni837   1.904       .  S
O567       Ni583   1.909       .  S
C568        C733   1.472       .  S
C568        O585   1.265       .  A
C568        O577   1.269       .  A
O569       Ni588   1.921       .  S
O569        C575   1.270       .  A
O570       Ni588   1.901       .  S
O570        C572   1.272       .  A
Ni571       O574   1.933       .  S
Ni571       O576   1.898       .  S
Ni571       O815   1.918   1_554  S
C572        C604   1.466       .  S
C572        O582   1.279       .  A
O573       Ni589   1.903   1_556  S
O573        C579   1.267   1_556  A
O574        C579   1.274       .  A
C575        C717   1.468       .  S
C575        O814   1.266       .  A
O576        C578   1.268       .  A
O577       Ni588   1.934       .  S
C578        C598   1.471       .  S
C578        O584   1.277       .  A
C579        C701   1.478   1_554  S
H580        O581   0.967       .  S
O581       Ni589   1.927       .  S
O581       Ni831   1.911       .  S
O581       Ni836   1.924   1_554  S
O582       Ni583   1.947       .  S
Ni583       O587   1.903       .  S
Ni583       O585   1.910       .  S
Ni583       O829   1.910       .  S
O584       Ni589   1.948       .  S
C586        C682   1.478       .  S
C586        O835   1.267   1_554  A
O587        C834   1.267       .  A
Ni588       O829   1.923       .  S
Ni589       O815   1.905   1_554  S
O591       Ni597   1.930       .  S
O591        C612   1.269       .  A
O592       Ni615   1.901       .  S
O592        C601   1.265       .  A
O593        H616   0.966       .  S
O593       Ni597   1.927       .  S
O593       Ni615   1.917       .  S
O593       Ni609   1.913       .  S
C594        C669   1.476       .  S
C594        O611   1.267       .  A
C594        O603   1.273       .  A
O595       Ni614   1.927       .  S
O595        C601   1.272       .  A
O596       Ni614   1.905       .  S
O596        C598   1.268       .  A
Ni597       O600   1.928       .  S
Ni597       O602   1.907       .  S
C598        O608   1.275       .  A
O599       Ni615   1.907       .  S
O599        C605   1.269       .  A
O600        C605   1.273       .  A
C601        C653   1.481       .  S
O602        C604   1.268       .  A
O603       Ni614   1.935       .  S
C604        O610   1.271       .  A
C605        C637   1.474       .  S
H606        O607   0.967       .  S
O607       Ni615   1.915       .  S
O607       Ni609   1.909       .  S
O607       Ni614   1.923       .  S
O608       Ni609   1.940       .  S
Ni609       O613   1.902       .  S
Ni609       O611   1.905       .  S
O610       Ni615   1.925       .  S
C612        C618   1.469       .  S
C612        O613   1.263       .  A
C617        C618   1.402       .  A
C617        C622   1.403       .  A
C617        H624   1.085       .  S
C618        C619   1.411       .  A
C619        C620   1.402       .  A
C619        C626   1.507       .  S
C620        C621   1.401       .  A
C620        H625   1.084       .  S
C621        C622   1.414       .  A
C622        C623   1.508       .  S
C623        H627   1.110       .  S
C623        H628   1.110       .  S
C623        H629   1.109       .  S
C626        H630   1.110       .  S
C626        H631   1.110       .  S
C626        H632   1.111       .  S
C633        C634   1.404       .  A
C633        C638   1.404       .  A
C633        H640   1.084       .  S
C634        C635   1.417       .  A
C635        C636   1.401       .  A
C635        C642   1.509       .  S
C636        C637   1.401       .  A
C636        H641   1.085       .  S
C637        C638   1.412       .  A
C638        C639   1.505       .  S
C639        H643   1.110       .  S
C639        H644   1.109       .  S
C639        H645   1.111       .  S
C642        H646   1.108       .  S
C642        H647   1.110       .  S
C642        H648   1.109       .  S
C649        C650   1.401       .  A
C649        C654   1.406       .  A
C649        H656   1.084       .  S
C650        C651   1.410       .  A
C651        C652   1.398       .  A
C651        C658   1.509       .  S
C652        C653   1.405       .  A
C652        H657   1.084       .  S
C653        C654   1.419       .  A
C654        C655   1.508       .  S
C655        H659   1.111       .  S
C655        H660   1.110       .  S
C655        H661   1.108       .  S
C658        H662   1.110       .  S
C658        H663   1.110       .  S
C658        H664   1.111       .  S
C665        C666   1.402       .  A
C665        C670   1.402       .  A
C665        H672   1.084       .  S
C666        C667   1.414       .  A
C667        C668   1.405       .  A
C667        C674   1.508       .  S
C668        C669   1.405       .  A
C668        H673   1.084       .  S
C669        C670   1.413       .  A
C670        C671   1.508       .  S
C671        H675   1.110       .  S
C671        H676   1.109       .  S
C671        H677   1.111       .  S
C674        H678   1.110       .  S
C674        H679   1.108       .  S
C674        H680   1.110       .  S
C681        C930   1.403       .  A
C681        C686   1.403       .  A
C681        H688   1.085       .  S
C682        C929   1.405   1_554  A
C682        C683   1.416       .  A
C683        C684   1.402       .  A
C683        C690   1.509       .  S
C684        C685   1.401   1_554  A
C684        H689   1.084       .  S
C685        C934   1.413       .  A
C686        C933   1.413       .  A
C686        C687   1.507       .  S
C687        H691   1.110       .  S
C687        H940   1.108       .  S
C687        H693   1.108       .  S
C690        H694   1.109       .  S
C690        H943   1.110       .  S
C690        H696   1.111       .  S
H692        C935   1.107       .  S
H695        C938   1.110       .  S
C697        C946   1.402       .  A
C697        C950   1.407       .  A
C697        H704   1.084       .  S
C698        C945   1.401       .  A
C698        C699   1.411   1_556  A
C699        C700   1.400       .  A
C699        C706   1.507       .  S
C700        C701   1.403   1_554  A
C700        H705   1.084       .  S
C701        C702   1.417       .  A
C702        C945   1.406       .  A
C702        C951   1.507       .  S
C703        C950   1.507       .  S
C703        H707   1.110       .  S
C703        H956   1.110       .  S
C703        H709   1.109       .  S
C706        H710   1.110       .  S
C706        H959   1.110       .  S
C706        H712   1.111       .  S
H708        C951   1.110       .  S
H711        C954   1.110       .  S
C713        C714   1.403       .  A
C713        C718   1.403       .  A
C713        H720   1.084       .  S
C714        C963   1.416       .  A
C714        C765   1.485       .  S
C715        C962   1.416       .  A
C715        C716   1.401       .  A
C715        C722   1.509       .  S
C716        C965   1.400       .  A
C716        H721   1.085       .  S
C717        C964   1.400       .  A
C717        C718   1.411       .  A
C718        C719   1.505       .  S
C719        H723   1.111       .  S
C719        H972   1.110       .  S
C719        H725   1.110       .  S
C722        H726   1.108       .  S
C722        H975   1.110       .  S
C722        H728   1.110       .  S
H724        C967   1.110       .  S
H727        C970   1.110       .  S
C729        C730   1.403       .  A
C729        C734   1.404       .  A
C729        H736   1.083       .  S
C730        C979   1.414       .  A
C730        C768   1.485       .  S
C731        C978   1.415   1_554  A
C731        C732   1.403       .  A
C731        C738   1.508       .  S
C732        C981   1.401   1_554  A
C732        H737   1.084       .  S
C733        C980   1.401       .  A
C733        C734   1.412       .  A
C734        C735   1.507       .  S
C735        H739   1.110       .  S
C735        H740   1.110       .  S
C735        H741   1.111       .  S
C738        H742   1.111       .  S
C738        H743   1.108       .  S
C738        H744   1.111       .  S
N745        H777   1.038       .  S
N745        C749   1.351       .  A
N746        C753   1.350       .  A
N746       C1746   1.350       .  A
N747        H778   1.036   1_545  S
N747        C752   1.353   1_545  A
N748       C1747   1.351       .  A
N748        C756   1.350   1_655  A
C749        C757   1.388       .  A
C749        C765   1.414       .  A
C750        C766   1.413       .  A
C750        C758   1.387       .  A
C751        C759   1.387       .  A
C751        C768   1.416       .  A
C752        C767   1.416       .  A
C752        C760   1.388       .  A
C753        C765   1.411       .  A
C753        C761   1.386       .  A
C754       N1738   1.350       .  A
C754        C768   1.410       .  A
C754        C762   1.386       .  A
C755       N1740   1.351       .  A
C755        C763   1.385       .  A
C755        C766   1.411       .  A
C756        C764   1.387       .  A
C756        C767   1.412       .  A
C757        H769   1.083       .  S
C758        H770   1.082       .  S
C759        H771   1.082       .  S
C760        H772   1.082       .  S
C761       C1754   1.374       .  A
C761        H773   1.082       .  S
C762       C1753   1.374   1_455  A
C762        H774   1.082       .  S
C763       C1756   1.376       .  A
C763        H775   1.082       .  S
C764       C1755   1.376   1_455  A
C764        H776   1.082       .  S
C766        C946   1.486       .  S
C767        C933   1.484       .  S
N779        H811   1.039       .  S
N779        C783   1.352       .  A
N780        C787   1.349       .  A
N780       C1780   1.349       .  A
N781        H812   1.038   1_565  S
N781        C786   1.353       .  A
N782       C1781   1.350       .  A
N782        C790   1.350   1_655  A
C783        C791   1.386       .  A
C783        C799   1.411       .  A
C784        C800   1.415       .  A
C784        C792   1.388       .  A
C785        C793   1.387       .  A
C785        C802   1.414       .  A
C786        C801   1.416       .  A
C786        C794   1.388       .  A
C787        C799   1.408       .  A
C787        C795   1.385       .  A
C788       N1772   1.349       .  A
C788        C802   1.409       .  A
C788        C796   1.386       .  A
C789       N1774   1.350       .  A
C789        C797   1.387       .  A
C789        C800   1.413       .  A
C790        C798   1.385       .  A
C790        C801   1.410       .  A
C791        H803   1.082       .  S
C792        H804   1.082       .  S
C793        H805   1.082       .  S
C794        H806   1.082       .  S
C795       C1788   1.376       .  A
C795        H807   1.082       .  S
C796       C1787   1.376   1_455  A
C796        H808   1.082       .  S
C797       C1790   1.376       .  A
C797        H809   1.082       .  S
C798       C1789   1.376   1_455  A
C798        H810   1.082       .  S
C799        C898   1.483       .  S
C800        C882   1.491       .  S
C801        C869   1.485       .  S
C802        C914   1.482       .  S
O813       Ni819   1.929       .  S
O813        C834   1.271       .  A
O814       Ni837   1.902       .  S
O815        H838   0.967       .  S
O815       Ni831   1.909   1_556  S
C816        C981   1.472       .  S
C816        O833   1.265   1_556  A
C816        O825   1.270       .  A
O817       Ni836   1.922       .  S
O817        C823   1.270   1_556  A
O818       Ni836   1.901       .  S
O818        C820   1.271       .  A
Ni819       O822   1.934       .  S
Ni819       O824   1.895       .  S
C820        C852   1.466       .  S
C820        O830   1.279       .  A
O821       Ni837   1.905       .  S
O821        C827   1.268       .  A
O822        C827   1.274       .  A
C823        C965   1.470       .  S
O824        C826   1.268       .  A
O825       Ni836   1.934       .  S
C826        C846   1.466       .  S
C826        O832   1.276       .  A
C827        C949   1.480       .  S
H828        O829   0.967       .  S
O829       Ni837   1.929       .  S
O830       Ni831   1.947   1_556  S
Ni831       O835   1.906   1_554  S
Ni831       O833   1.908       .  S
O832       Ni837   1.945       .  S
C834        C930   1.475       .  S
O839       Ni845   1.931       .  S
O839        C860   1.269       .  A
O840       Ni863   1.904       .  S
O840        C849   1.266       .  A
O841        H864   0.966       .  S
O841       Ni845   1.926       .  S
O841       Ni863   1.917       .  S
O841       Ni857   1.910       .  S
C842        C917   1.474       .  S
C842        O859   1.268       .  A
C842        O851   1.274       .  A
O843       Ni862   1.927       .  S
O843        C849   1.272       .  A
O844       Ni862   1.904       .  S
O844        C846   1.267       .  A
Ni845       O848   1.927       .  S
Ni845       O850   1.906       .  S
C846        O856   1.274       .  A
O847       Ni863   1.906       .  S
O847        C853   1.269       .  A
O848        C853   1.274       .  A
C849        C901   1.482       .  S
O850        C852   1.268       .  A
O851       Ni862   1.933       .  S
C852        O858   1.271       .  A
C853        C885   1.474       .  S
H854        O855   0.967       .  S
O855       Ni863   1.913       .  S
O855       Ni857   1.910       .  S
O855       Ni862   1.921       .  S
O856       Ni857   1.933       .  S
Ni857       O861   1.907       .  S
Ni857       O859   1.902       .  S
O858       Ni863   1.924       .  S
C860        C866   1.473       .  S
C860        O861   1.264       .  A
C865        C866   1.403       .  A
C865        C870   1.404       .  A
C865        H872   1.085       .  S
C866        C867   1.412       .  A
C867        C868   1.404       .  A
C867        C874   1.507       .  S
C868        C869   1.402       .  A
C868        H873   1.084       .  S
C869        C870   1.414       .  A
C870        C871   1.508       .  S
C871        H875   1.109       .  S
C871        H876   1.110       .  S
C871        H877   1.109       .  S
C874        H878   1.110       .  S
C874        H879   1.110       .  S
C874        H880   1.110       .  S
C881        C882   1.404       .  A
C881        C886   1.403       .  A
C881        H888   1.084       .  S
C882        C883   1.418       .  A
C883        C884   1.401       .  A
C883        C890   1.509       .  S
C884        C885   1.401       .  A
C884        H889   1.085       .  S
C885        C886   1.413       .  A
C886        C887   1.506       .  S
C887        H891   1.110       .  S
C887        H892   1.109       .  S
C887        H893   1.111       .  S
C890        H894   1.108       .  S
C890        H895   1.110       .  S
C890        H896   1.108       .  S
C897        C898   1.402       .  A
C897        C902   1.407       .  A
C897        H904   1.084       .  S
C898        C899   1.410       .  A
C899        C900   1.399       .  A
C899        C906   1.509       .  S
C900        C901   1.405       .  A
C900        H905   1.084       .  S
C901        C902   1.419       .  A
C902        C903   1.508       .  S
C903        H907   1.111       .  S
C903        H908   1.110       .  S
C903        H909   1.109       .  S
C906        H910   1.110       .  S
C906        H911   1.110       .  S
C906        H912   1.111       .  S
C913        C914   1.402       .  A
C913        C918   1.402       .  A
C913        H920   1.084       .  S
C914        C915   1.414       .  A
C915        C916   1.402       .  A
C915        C922   1.508       .  S
C916        C917   1.404       .  A
C916        H921   1.084       .  S
C917        C918   1.413       .  A
C918        C919   1.508       .  S
C919        H923   1.106       .  S
C919        H924   1.109       .  S
C919        H925   1.111       .  S
C922        H926   1.111       .  S
C922        H927   1.108       .  S
C922        H928   1.110       .  S
C929        C934   1.404       .  A
C929        H936   1.085       .  S
C930        C931   1.415       .  A
C931        C932   1.402       .  A
C931        C938   1.508       .  S
C932        C933   1.401       .  A
C932        H937   1.084       .  S
C934        C935   1.506       .  S
C935        H939   1.110       .  S
C935        H941   1.108       .  S
C938        H942   1.109       .  S
C938        H944   1.111       .  S
C945        H952   1.084       .  S
C946        C947   1.410       .  A
C947        C948   1.400       .  A
C947        C954   1.506       .  S
C948        C949   1.404       .  A
C948        H953   1.084       .  S
C949        C950   1.417       .  A
C951        H955   1.109       .  S
C951        H957   1.109       .  S
C954        H958   1.110       .  S
C954        H960   1.111       .  S
C961        C962   1.403   1_556  A
C961        C966   1.404       .  A
C961        H968   1.084       .  S
C963        C964   1.400       .  A
C963        C970   1.509       .  S
C964        H969   1.085       .  S
C965        C966   1.411   1_554  A
C966        C967   1.506       .  S
C967        H971   1.111       .  S
C967        H973   1.110       .  S
C970        H974   1.108       .  S
C970        H976   1.110       .  S
C977        C978   1.404       .  A
C977        C982   1.405       .  A
C977        H984   1.084       .  S
C979        C980   1.401       .  A
C979        C986   1.508       .  S
C980        H985   1.081       .  S
C981        C982   1.412       .  A
C982        C983   1.507       .  S
C983        H987   1.110       .  S
C983        H988   1.110       .  S
C983        H989   1.111       .  S
C986        H990   1.111       .  S
C986        H991   1.108       .  S
C986        H992   1.110       .  S
N993       H1025   1.038   1_546  S
N993       C1494   1.352   1_545  A
N993        C997   1.351       .  A
N994       C1001   1.350   1_456  A
N995       H1026   1.036   1_556  S
N995       C1000   1.353       .  A
N995       C1495   1.355       .  A
N996       C1004   1.350       .  A
C997       C1005   1.388       .  A
C997       C1013   1.414       .  A
C998       N1489   1.352       .  A
C998       C1014   1.411       .  A
C998       C1006   1.386       .  A
C999       N1491   1.355       .  A
C999       C1007   1.387       .  A
C999       C1016   1.418       .  A
C1000      C1015   1.416       .  A
C1000      C1008   1.387       .  A
C1001      C1013   1.412   1_554  A
C1001      C1009   1.386       .  A
C1002      C1016   1.411   1_554  A
C1002      C1010   1.386       .  A
C1003      C1011   1.386   1_556  A
C1003      C1014   1.410       .  A
C1004      C1012   1.387   1_556  A
C1004      C1015   1.412       .  A
C1005      C1502   1.374   1_545  A
C1005      H1017   1.083       .  S
C1006      C1501   1.374       .  A
C1006      H1018   1.082       .  S
C1007      C1504   1.374   1_545  A
C1007      H1019   1.082       .  S
C1008      C1503   1.374       .  A
C1008      H1020   1.082       .  S
C1009      H1021   1.082       .  S
C1010      H1022   1.082       .  S
C1011      H1023   1.082       .  S
C1012      H1024   1.082       .  S
C1013      C1458   1.487   1_556  S
C1014      C1194   1.484       .  S
C1015      C1181   1.484       .  S
C1016      C1474   1.488       .  S
N1027      H1059   1.039   1_565  S
N1027      C1528   1.352       .  A
N1027      C1031   1.351   1_565  A
N1028      C1035   1.349       .  A
N1029      H1060   1.037       .  S
N1029      C1034   1.353       .  A
N1029      C1529   1.354       .  A
N1030      C1038   1.349       .  A
C1031      C1039   1.386       .  A
C1031      C1047   1.410       .  A
C1032      N1523   1.351       .  A
C1032      C1048   1.414       .  A
C1032      C1040   1.388       .  A
C1033      N1525   1.354   1_545  A
C1033      C1041   1.387       .  A
C1033      C1050   1.416       .  A
C1034      C1049   1.417       .  A
C1034      C1042   1.388       .  A
C1035      C1047   1.408       .  A
C1035      C1043   1.385       .  A
C1036      C1050   1.410       .  A
C1036      C1044   1.386       .  A
C1037      C1045   1.386       .  A
C1037      C1048   1.412       .  A
C1038      C1046   1.386       .  A
C1038      C1049   1.410       .  A
C1039      C1536   1.375   1_545  A
C1039      H1051   1.082       .  S
C1040      C1535   1.375       .  A
C1040      H1052   1.082       .  S
C1041      C1538   1.374   1_545  A
C1041      H1053   1.082       .  S
C1042      C1537   1.374       .  A
C1042      H1054   1.082       .  S
C1043      H1055   1.082       .  S
C1044      H1056   1.082       .  S
C1045      H1057   1.082       .  S
C1046      H1058   1.082       .  S
C1047      C1146   1.482       .  S
C1048      C1130   1.490       .  S
C1049      C1117   1.483       .  S
C1050      C1162   1.485       .  S
O1061     Ni1067   1.927       .  S
O1061      C1082   1.271       .  A
O1062     Ni1085   1.905       .  S
O1062      C1319   1.266       .  A
O1063      H1086   0.967       .  S
O1063     Ni1315   1.917       .  S
O1063     Ni1333   1.904       .  S
O1063     Ni1079   1.909       .  S
C1064      C1229   1.472       .  S
C1064      O1081   1.265       .  A
C1064      O1073   1.269       .  A
O1065     Ni1084   1.921       .  S
O1065      C1071   1.270       .  A
O1066     Ni1084   1.901       .  S
O1066      C1068   1.272       .  A
Ni1067     O1070   1.933       .  S
Ni1067     O1072   1.898       .  S
Ni1067     O1311   1.918   1_554  S
C1068      C1100   1.466       .  S
C1068      O1078   1.279       .  A
O1069     Ni1085   1.903   1_556  S
O1069      C1075   1.267   1_556  A
O1070      C1075   1.274       .  A
C1071      C1213   1.468       .  S
C1071      O1310   1.266       .  A
O1072      C1074   1.268       .  A
O1073     Ni1084   1.934       .  S
C1074      C1094   1.471       .  S
C1074      O1080   1.277       .  A
C1075      C1197   1.478   1_554  S
H1076      O1077   0.967       .  S
O1077     Ni1085   1.927       .  S
O1077     Ni1327   1.911       .  S
O1077     Ni1332   1.924   1_554  S
O1078     Ni1079   1.947       .  S
Ni1079     O1083   1.903       .  S
Ni1079     O1081   1.910       .  S
Ni1079     O1325   1.910       .  S
O1080     Ni1085   1.948       .  S
C1082      C1178   1.478       .  S
C1082      O1331   1.267   1_554  A
O1083      C1330   1.267       .  A
Ni1084     O1325   1.923       .  S
Ni1085     O1311   1.905   1_554  S
O1087     Ni1093   1.930       .  S
O1087      C1108   1.269       .  A
O1088     Ni1111   1.901       .  S
O1088      C1097   1.265       .  A
O1089      H1112   0.966       .  S
O1089     Ni1093   1.927       .  S
O1089     Ni1111   1.917       .  S
O1089     Ni1105   1.913       .  S
C1090      C1165   1.476       .  S
C1090      O1107   1.267       .  A
C1090      O1099   1.273       .  A
O1091     Ni1110   1.927       .  S
O1091      C1097   1.272       .  A
O1092     Ni1110   1.905       .  S
O1092      C1094   1.268       .  A
Ni1093     O1096   1.928       .  S
Ni1093     O1098   1.907       .  S
C1094      O1104   1.275       .  A
O1095     Ni1111   1.907       .  S
O1095      C1101   1.269       .  A
O1096      C1101   1.273       .  A
C1097      C1149   1.481       .  S
O1098      C1100   1.268       .  A
O1099     Ni1110   1.935       .  S
C1100      O1106   1.271       .  A
C1101      C1133   1.474       .  S
H1102      O1103   0.967       .  S
O1103     Ni1111   1.915       .  S
O1103     Ni1105   1.909       .  S
O1103     Ni1110   1.923       .  S
O1104     Ni1105   1.940       .  S
Ni1105     O1109   1.902       .  S
Ni1105     O1107   1.905       .  S
O1106     Ni1111   1.925       .  S
C1108      C1114   1.469       .  S
C1108      O1109   1.263       .  A
C1113      C1114   1.402       .  A
C1113      C1118   1.403       .  A
C1113      H1120   1.085       .  S
C1114      C1115   1.411       .  A
C1115      C1116   1.402       .  A
C1115      C1122   1.507       .  S
C1116      C1117   1.401       .  A
C1116      H1121   1.084       .  S
C1117      C1118   1.414       .  A
C1118      C1119   1.508       .  S
C1119      H1123   1.110       .  S
C1119      H1124   1.110       .  S
C1119      H1125   1.109       .  S
C1122      H1126   1.110       .  S
C1122      H1127   1.110       .  S
C1122      H1128   1.111       .  S
C1129      C1130   1.404       .  A
C1129      C1134   1.404       .  A
C1129      H1136   1.084       .  S
C1130      C1131   1.417       .  A
C1131      C1132   1.401       .  A
C1131      C1138   1.509       .  S
C1132      C1133   1.401       .  A
C1132      H1137   1.085       .  S
C1133      C1134   1.412       .  A
C1134      C1135   1.505       .  S
C1135      H1139   1.110       .  S
C1135      H1140   1.109       .  S
C1135      H1141   1.111       .  S
C1138      H1142   1.108       .  S
C1138      H1143   1.110       .  S
C1138      H1144   1.109       .  S
C1145      C1146   1.401       .  A
C1145      C1150   1.406       .  A
C1145      H1152   1.084       .  S
C1146      C1147   1.410       .  A
C1147      C1148   1.398       .  A
C1147      C1154   1.509       .  S
C1148      C1149   1.405       .  A
C1148      H1153   1.084       .  S
C1149      C1150   1.419       .  A
C1150      C1151   1.508       .  S
C1151      H1155   1.111       .  S
C1151      H1156   1.110       .  S
C1151      H1157   1.108       .  S
C1154      H1158   1.110       .  S
C1154      H1159   1.110       .  S
C1154      H1160   1.111       .  S
C1161      C1162   1.402       .  A
C1161      C1166   1.402       .  A
C1161      H1168   1.084       .  S
C1162      C1163   1.414       .  A
C1163      C1164   1.405       .  A
C1163      C1170   1.508       .  S
C1164      C1165   1.405       .  A
C1164      H1169   1.084       .  S
C1165      C1166   1.413       .  A
C1166      C1167   1.508       .  S
C1167      H1171   1.110       .  S
C1167      H1172   1.109       .  S
C1167      H1173   1.111       .  S
C1170      H1174   1.110       .  S
C1170      H1175   1.108       .  S
C1170      H1176   1.110       .  S
C1177      C1426   1.403       .  A
C1177      C1182   1.403       .  A
C1177      H1184   1.085       .  S
C1178      C1425   1.405   1_554  A
C1178      C1179   1.416       .  A
C1179      C1180   1.402       .  A
C1179      C1186   1.509       .  S
C1180      C1181   1.401   1_554  A
C1180      H1185   1.084       .  S
C1181      C1430   1.413       .  A
C1182      C1429   1.413       .  A
C1182      C1183   1.507       .  S
C1183      H1187   1.110       .  S
C1183      H1436   1.108       .  S
C1183      H1189   1.108       .  S
C1186      H1190   1.109       .  S
C1186      H1439   1.110       .  S
C1186      H1192   1.111       .  S
H1188      C1431   1.107       .  S
H1191      C1434   1.110       .  S
C1193      C1442   1.402       .  A
C1193      C1446   1.407       .  A
C1193      H1200   1.084       .  S
C1194      C1441   1.401       .  A
C1194      C1195   1.411   1_556  A
C1195      C1196   1.400       .  A
C1195      C1202   1.507       .  S
C1196      C1197   1.403   1_554  A
C1196      H1201   1.084       .  S
C1197      C1198   1.417       .  A
C1198      C1441   1.406       .  A
C1198      C1447   1.507       .  S
C1199      C1446   1.507       .  S
C1199      H1203   1.110       .  S
C1199      H1452   1.110       .  S
C1199      H1205   1.109       .  S
C1202      H1206   1.110       .  S
C1202      H1455   1.110       .  S
C1202      H1208   1.111       .  S
H1204      C1447   1.110       .  S
H1207      C1450   1.110       .  S
C1209      C1210   1.403       .  A
C1209      C1214   1.403       .  A
C1209      H1216   1.084       .  S
C1210      C1459   1.416       .  A
C1210      C1261   1.485       .  S
C1211      C1458   1.416       .  A
C1211      C1212   1.401       .  A
C1211      C1218   1.509       .  S
C1212      C1461   1.400       .  A
C1212      H1217   1.085       .  S
C1213      C1460   1.400       .  A
C1213      C1214   1.411       .  A
C1214      C1215   1.505       .  S
C1215      H1219   1.111       .  S
C1215      H1468   1.110       .  S
C1215      H1221   1.110       .  S
C1218      H1222   1.108       .  S
C1218      H1471   1.110       .  S
C1218      H1224   1.110       .  S
H1220      C1463   1.110       .  S
H1223      C1466   1.110       .  S
C1225      C1226   1.403       .  A
C1225      C1230   1.404       .  A
C1225      H1232   1.083       .  S
C1226      C1475   1.414       .  A
C1226      C1264   1.485       .  S
C1227      C1474   1.415   1_554  A
C1227      C1228   1.403       .  A
C1227      C1234   1.508       .  S
C1228      C1477   1.401   1_554  A
C1228      H1233   1.084       .  S
C1229      C1476   1.401       .  A
C1229      C1230   1.412       .  A
C1230      C1231   1.507       .  S
C1231      H1235   1.110       .  S
C1231      H1236   1.110       .  S
C1231      H1237   1.111       .  S
C1234      H1238   1.111       .  S
C1234      H1239   1.108       .  S
C1234      H1240   1.111       .  S
N1241      H1273   1.038   1_545  S
N1241      C1742   1.352   1_545  A
N1241      C1245   1.351       .  A
N1242      C1249   1.350   1_455  A
N1243      H1274   1.036       .  S
N1243      C1248   1.353       .  A
N1243      C1743   1.354       .  A
N1244      C1252   1.350       .  A
C1245      C1253   1.388       .  A
C1245      C1261   1.414       .  A
C1246      N1737   1.352       .  A
C1246      C1262   1.413       .  A
C1246      C1254   1.387       .  A
C1247      N1739   1.354       .  A
C1247      C1255   1.387       .  A
C1247      C1264   1.416       .  A
C1248      C1263   1.416       .  A
C1248      C1256   1.388       .  A
C1249      C1261   1.411       .  A
C1249      C1257   1.386       .  A
C1250      C1264   1.410       .  A
C1250      C1258   1.386       .  A
C1251      C1259   1.385       .  A
C1251      C1262   1.411       .  A
C1252      C1260   1.387       .  A
C1252      C1263   1.412       .  A
C1253      C1750   1.374   1_545  A
C1253      H1265   1.083       .  S
C1254      C1749   1.374       .  A
C1254      H1266   1.082       .  S
C1255      C1752   1.374   1_545  A
C1255      H1267   1.082       .  S
C1256      C1751   1.374       .  A
C1256      H1268   1.082       .  S
C1257      H1269   1.082       .  S
C1258      H1270   1.082       .  S
C1259      H1271   1.082       .  S
C1260      H1272   1.082       .  S
C1262      C1442   1.486       .  S
C1263      C1429   1.484       .  S
N1275      H1307   1.039   1_565  S
N1275      C1776   1.352       .  A
N1275      C1279   1.352   1_565  A
N1276      C1283   1.349   1_455  A
N1277      H1308   1.038       .  S
N1277      C1282   1.353       .  A
N1277      C1777   1.353       .  A
N1278      C1286   1.350       .  A
C1279      C1287   1.386       .  A
C1279      C1295   1.411       .  A
C1280      N1771   1.352       .  A
C1280      C1296   1.415       .  A
C1280      C1288   1.388       .  A
C1281      N1773   1.353   1_545  A
C1281      C1289   1.387       .  A
C1281      C1298   1.414       .  A
C1282      C1297   1.416       .  A
C1282      C1290   1.388       .  A
C1283      C1295   1.408       .  A
C1283      C1291   1.385       .  A
C1284      C1298   1.409       .  A
C1284      C1292   1.386       .  A
C1285      C1293   1.387       .  A
C1285      C1296   1.413       .  A
C1286      C1294   1.385       .  A
C1286      C1297   1.410       .  A
C1287      C1784   1.375   1_545  A
C1287      H1299   1.082       .  S
C1288      C1783   1.375       .  A
C1288      H1300   1.082       .  S
C1289      C1786   1.374   1_545  A
C1289      H1301   1.082       .  S
C1290      C1785   1.374       .  A
C1290      H1302   1.082       .  S
C1291      H1303   1.082       .  S
C1292      H1304   1.082       .  S
C1293      H1305   1.082       .  S
C1294      H1306   1.082       .  S
C1295      C1394   1.483       .  S
C1296      C1378   1.491       .  S
C1297      C1365   1.485       .  S
C1298      C1410   1.482       .  S
O1309     Ni1315   1.929       .  S
O1309      C1330   1.271       .  A
O1310     Ni1333   1.902       .  S
O1311      H1334   0.967       .  S
O1311     Ni1327   1.909   1_556  S
C1312      C1477   1.472       .  S
C1312      O1329   1.265   1_556  A
C1312      O1321   1.270       .  A
O1313     Ni1332   1.922       .  S
O1313      C1319   1.270   1_556  A
O1314     Ni1332   1.901       .  S
O1314      C1316   1.271       .  A
Ni1315     O1318   1.934       .  S
Ni1315     O1320   1.895       .  S
C1316      C1348   1.466       .  S
C1316      O1326   1.279       .  A
O1317     Ni1333   1.905       .  S
O1317      C1323   1.268       .  A
O1318      C1323   1.274       .  A
C1319      C1461   1.470       .  S
O1320      C1322   1.268       .  A
O1321     Ni1332   1.934       .  S
C1322      C1342   1.466       .  S
C1322      O1328   1.276       .  A
C1323      C1445   1.480       .  S
H1324      O1325   0.967       .  S
O1325     Ni1333   1.929       .  S
O1326     Ni1327   1.947   1_556  S
Ni1327     O1331   1.906   1_554  S
Ni1327     O1329   1.908       .  S
O1328     Ni1333   1.945       .  S
C1330      C1426   1.475       .  S
O1335     Ni1341   1.931       .  S
O1335      C1356   1.269       .  A
O1336     Ni1359   1.904       .  S
O1336      C1345   1.266       .  A
O1337      H1360   0.966       .  S
O1337     Ni1341   1.926       .  S
O1337     Ni1359   1.917       .  S
O1337     Ni1353   1.910       .  S
C1338      C1413   1.474       .  S
C1338      O1355   1.268       .  A
C1338      O1347   1.274       .  A
O1339     Ni1358   1.927       .  S
O1339      C1345   1.272       .  A
O1340     Ni1358   1.904       .  S
O1340      C1342   1.267       .  A
Ni1341     O1344   1.927       .  S
Ni1341     O1346   1.906       .  S
C1342      O1352   1.274       .  A
O1343     Ni1359   1.906       .  S
O1343      C1349   1.269       .  A
O1344      C1349   1.274       .  A
C1345      C1397   1.482       .  S
O1346      C1348   1.268       .  A
O1347     Ni1358   1.933       .  S
C1348      O1354   1.271       .  A
C1349      C1381   1.474       .  S
H1350      O1351   0.967       .  S
O1351     Ni1359   1.913       .  S
O1351     Ni1353   1.910       .  S
O1351     Ni1358   1.921       .  S
O1352     Ni1353   1.933       .  S
Ni1353     O1357   1.907       .  S
Ni1353     O1355   1.902       .  S
O1354     Ni1359   1.924       .  S
C1356      C1362   1.473       .  S
C1356      O1357   1.264       .  A
C1361      C1362   1.403       .  A
C1361      C1366   1.404       .  A
C1361      H1368   1.085       .  S
C1362      C1363   1.412       .  A
C1363      C1364   1.404       .  A
C1363      C1370   1.507       .  S
C1364      C1365   1.402       .  A
C1364      H1369   1.084       .  S
C1365      C1366   1.414       .  A
C1366      C1367   1.508       .  S
C1367      H1371   1.109       .  S
C1367      H1372   1.110       .  S
C1367      H1373   1.109       .  S
C1370      H1374   1.110       .  S
C1370      H1375   1.110       .  S
C1370      H1376   1.110       .  S
C1377      C1378   1.404       .  A
C1377      C1382   1.403       .  A
C1377      H1384   1.084       .  S
C1378      C1379   1.418       .  A
C1379      C1380   1.401       .  A
C1379      C1386   1.509       .  S
C1380      C1381   1.401       .  A
C1380      H1385   1.085       .  S
C1381      C1382   1.413       .  A
C1382      C1383   1.506       .  S
C1383      H1387   1.110       .  S
C1383      H1388   1.109       .  S
C1383      H1389   1.111       .  S
C1386      H1390   1.108       .  S
C1386      H1391   1.110       .  S
C1386      H1392   1.108       .  S
C1393      C1394   1.402       .  A
C1393      C1398   1.407       .  A
C1393      H1400   1.084       .  S
C1394      C1395   1.410       .  A
C1395      C1396   1.399       .  A
C1395      C1402   1.509       .  S
C1396      C1397   1.405       .  A
C1396      H1401   1.084       .  S
C1397      C1398   1.419       .  A
C1398      C1399   1.508       .  S
C1399      H1403   1.111       .  S
C1399      H1404   1.110       .  S
C1399      H1405   1.109       .  S
C1402      H1406   1.110       .  S
C1402      H1407   1.110       .  S
C1402      H1408   1.111       .  S
C1409      C1410   1.402       .  A
C1409      C1414   1.402       .  A
C1409      H1416   1.084       .  S
C1410      C1411   1.414       .  A
C1411      C1412   1.402       .  A
C1411      C1418   1.508       .  S
C1412      C1413   1.404       .  A
C1412      H1417   1.084       .  S
C1413      C1414   1.413       .  A
C1414      C1415   1.508       .  S
C1415      H1419   1.106       .  S
C1415      H1420   1.109       .  S
C1415      H1421   1.111       .  S
C1418      H1422   1.111       .  S
C1418      H1423   1.108       .  S
C1418      H1424   1.110       .  S
C1425      C1430   1.404       .  A
C1425      H1432   1.085       .  S
C1426      C1427   1.415       .  A
C1427      C1428   1.402       .  A
C1427      C1434   1.508       .  S
C1428      C1429   1.401       .  A
C1428      H1433   1.084       .  S
C1430      C1431   1.506       .  S
C1431      H1435   1.110       .  S
C1431      H1437   1.108       .  S
C1434      H1438   1.109       .  S
C1434      H1440   1.111       .  S
C1441      H1448   1.084       .  S
C1442      C1443   1.410       .  A
C1443      C1444   1.400       .  A
C1443      C1450   1.506       .  S
C1444      C1445   1.404       .  A
C1444      H1449   1.084       .  S
C1445      C1446   1.417       .  A
C1447      H1451   1.109       .  S
C1447      H1453   1.109       .  S
C1450      H1454   1.110       .  S
C1450      H1456   1.111       .  S
C1457      C1458   1.403   1_556  A
C1457      C1462   1.404       .  A
C1457      H1464   1.084       .  S
C1459      C1460   1.400       .  A
C1459      C1466   1.509       .  S
C1460      H1465   1.085       .  S
C1461      C1462   1.411   1_554  A
C1462      C1463   1.506       .  S
C1463      H1467   1.111       .  S
C1463      H1469   1.110       .  S
C1466      H1470   1.108       .  S
C1466      H1472   1.110       .  S
C1473      C1474   1.404       .  A
C1473      C1478   1.405       .  A
C1473      H1480   1.084       .  S
C1475      C1476   1.401       .  A
C1475      C1482   1.508       .  S
C1476      H1481   1.081       .  S
C1477      C1478   1.412       .  A
C1478      C1479   1.507       .  S
C1479      H1483   1.110       .  S
C1479      H1484   1.110       .  S
C1479      H1485   1.111       .  S
C1482      H1486   1.111       .  S
C1482      H1487   1.108       .  S
C1482      H1488   1.110       .  S
N1489      H1521   1.038   1_556  S
N1489      C1493   1.351       .  A
N1490      C1497   1.350   1_456  A
N1491      H1522   1.036   1_546  S
N1491      C1496   1.353   1_545  A
N1492      C1500   1.350       .  A
C1493      C1501   1.388       .  A
C1493      C1509   1.414       .  A
C1494      C1510   1.411       .  A
C1494      C1502   1.386       .  A
C1495      C1503   1.387       .  A
C1495      C1512   1.418       .  A
C1496      C1511   1.416       .  A
C1496      C1504   1.387       .  A
C1497      C1509   1.412   1_554  A
C1497      C1505   1.386       .  A
C1498      C1512   1.411   1_554  A
C1498      C1506   1.386       .  A
C1499      C1507   1.386   1_556  A
C1499      C1510   1.410       .  A
C1500      C1508   1.387   1_556  A
C1500      C1511   1.412       .  A
C1501      H1513   1.083       .  S
C1502      H1514   1.082       .  S
C1503      H1515   1.082       .  S
C1504      H1516   1.082       .  S
C1505      H1517   1.082       .  S
C1506      H1518   1.082       .  S
C1507      H1519   1.082       .  S
C1508      H1520   1.082       .  S
C1509      C1954   1.487   1_556  S
C1510      C1690   1.484       .  S
C1511      C1677   1.484       .  S
C1512      C1970   1.488       .  S
N1523      H1555   1.040       .  S
N1523      C1527   1.351       .  A
N1524      C1531   1.349       .  A
N1525      H1556   1.037   1_565  S
N1525      C1530   1.353       .  A
N1526      C1534   1.349       .  A
C1527      C1535   1.386       .  A
C1527      C1543   1.410       .  A
C1528      C1544   1.414       .  A
C1528      C1536   1.388       .  A
C1529      C1537   1.387       .  A
C1529      C1546   1.416       .  A
C1530      C1545   1.417       .  A
C1530      C1538   1.388       .  A
C1531      C1543   1.408       .  A
C1531      C1539   1.385       .  A
C1532      C1546   1.410       .  A
C1532      C1540   1.386       .  A
C1533      C1541   1.386       .  A
C1533      C1544   1.412       .  A
C1534      C1542   1.386       .  A
C1534      C1545   1.410       .  A
C1535      H1547   1.082       .  S
C1536      H1548   1.082       .  S
C1537      H1549   1.082       .  S
C1538      H1550   1.082       .  S
C1539      H1551   1.082       .  S
C1540      H1552   1.082       .  S
C1541      H1553   1.082       .  S
C1542      H1554   1.082       .  S
C1543      C1642   1.482       .  S
C1544      C1626   1.490       .  S
C1545      C1613   1.483       .  S
C1546      C1658   1.485       .  S
O1557     Ni1563   1.927       .  S
O1557      C1578   1.271       .  A
O1558     Ni1581   1.905       .  S
O1558      C1815   1.266       .  A
O1559      H1582   0.967       .  S
O1559     Ni1811   1.917       .  S
O1559     Ni1829   1.904       .  S
O1559     Ni1575   1.909       .  S
C1560      C1725   1.472       .  S
C1560      O1577   1.265       .  A
C1560      O1569   1.269       .  A
O1561     Ni1580   1.921       .  S
O1561      C1567   1.270       .  A
O1562     Ni1580   1.901       .  S
O1562      C1564   1.272       .  A
Ni1563     O1566   1.933       .  S
Ni1563     O1568   1.898       .  S
Ni1563     O1807   1.918   1_554  S
C1564      C1596   1.467       .  S
C1564      O1574   1.279       .  A
O1565     Ni1581   1.903   1_556  S
O1565      C1571   1.267   1_556  A
O1566      C1571   1.274       .  A
C1567      C1709   1.468       .  S
C1567      O1806   1.266       .  A
O1568      C1570   1.268       .  A
O1569     Ni1580   1.934       .  S
C1570      C1590   1.471       .  S
C1570      O1576   1.277       .  A
C1571      C1693   1.478   1_554  S
H1572      O1573   0.967       .  S
O1573     Ni1581   1.927       .  S
O1573     Ni1823   1.911       .  S
O1573     Ni1828   1.924   1_554  S
O1574     Ni1575   1.947       .  S
Ni1575     O1579   1.903       .  S
Ni1575     O1577   1.910       .  S
Ni1575     O1821   1.910       .  S
O1576     Ni1581   1.948       .  S
C1578      C1674   1.478       .  S
C1578      O1827   1.267   1_554  A
O1579      C1826   1.267       .  A
Ni1580     O1821   1.923       .  S
Ni1581     O1807   1.905   1_554  S
O1583     Ni1589   1.930       .  S
O1583      C1604   1.269       .  A
O1584     Ni1607   1.901       .  S
O1584      C1593   1.265       .  A
O1585      H1608   0.966       .  S
O1585     Ni1589   1.927       .  S
O1585     Ni1607   1.917       .  S
O1585     Ni1601   1.913       .  S
C1586      C1661   1.476       .  S
C1586      O1603   1.267       .  A
C1586      O1595   1.273       .  A
O1587     Ni1606   1.927       .  S
O1587      C1593   1.272       .  A
O1588     Ni1606   1.905       .  S
O1588      C1590   1.268       .  A
Ni1589     O1592   1.928       .  S
Ni1589     O1594   1.907       .  S
C1590      O1600   1.275       .  A
O1591     Ni1607   1.907       .  S
O1591      C1597   1.269       .  A
O1592      C1597   1.273       .  A
C1593      C1645   1.481       .  S
O1594      C1596   1.268       .  A
O1595     Ni1606   1.935       .  S
C1596      O1602   1.271       .  A
C1597      C1629   1.474       .  S
H1598      O1599   0.967       .  S
O1599     Ni1607   1.915       .  S
O1599     Ni1601   1.909       .  S
O1599     Ni1606   1.923       .  S
O1600     Ni1601   1.940       .  S
Ni1601     O1605   1.902       .  S
Ni1601     O1603   1.905       .  S
O1602     Ni1607   1.925       .  S
C1604      C1610   1.469       .  S
C1604      O1605   1.263       .  A
C1609      C1610   1.402       .  A
C1609      C1614   1.403       .  A
C1609      H1616   1.085       .  S
C1610      C1611   1.411       .  A
C1611      C1612   1.402       .  A
C1611      C1618   1.507       .  S
C1612      C1613   1.401       .  A
C1612      H1617   1.084       .  S
C1613      C1614   1.414       .  A
C1614      C1615   1.508       .  S
C1615      H1619   1.110       .  S
C1615      H1620   1.110       .  S
C1615      H1621   1.109       .  S
C1618      H1622   1.110       .  S
C1618      H1623   1.110       .  S
C1618      H1624   1.111       .  S
C1625      C1626   1.404       .  A
C1625      C1630   1.404       .  A
C1625      H1632   1.084       .  S
C1626      C1627   1.417       .  A
C1627      C1628   1.401       .  A
C1627      C1634   1.509       .  S
C1628      C1629   1.401       .  A
C1628      H1633   1.085       .  S
C1629      C1630   1.412       .  A
C1630      C1631   1.505       .  S
C1631      H1635   1.110       .  S
C1631      H1636   1.109       .  S
C1631      H1637   1.111       .  S
C1634      H1638   1.108       .  S
C1634      H1639   1.110       .  S
C1634      H1640   1.109       .  S
C1641      C1642   1.401       .  A
C1641      C1646   1.406       .  A
C1641      H1648   1.084       .  S
C1642      C1643   1.410       .  A
C1643      C1644   1.398       .  A
C1643      C1650   1.509       .  S
C1644      C1645   1.405       .  A
C1644      H1649   1.084       .  S
C1645      C1646   1.419       .  A
C1646      C1647   1.508       .  S
C1647      H1651   1.111       .  S
C1647      H1652   1.110       .  S
C1647      H1653   1.108       .  S
C1650      H1654   1.110       .  S
C1650      H1655   1.110       .  S
C1650      H1656   1.111       .  S
C1657      C1658   1.402       .  A
C1657      C1662   1.402       .  A
C1657      H1664   1.084       .  S
C1658      C1659   1.414       .  A
C1659      C1660   1.405       .  A
C1659      C1666   1.508       .  S
C1660      C1661   1.405       .  A
C1660      H1665   1.084       .  S
C1661      C1662   1.413       .  A
C1662      C1663   1.508       .  S
C1663      H1667   1.110       .  S
C1663      H1668   1.109       .  S
C1663      H1669   1.111       .  S
C1666      H1670   1.110       .  S
C1666      H1671   1.108       .  S
C1666      H1672   1.110       .  S
C1673      C1922   1.403       .  A
C1673      C1678   1.403       .  A
C1673      H1680   1.085       .  S
C1674      C1921   1.405   1_554  A
C1674      C1675   1.416       .  A
C1675      C1676   1.402       .  A
C1675      C1682   1.509       .  S
C1676      C1677   1.401   1_554  A
C1676      H1681   1.084       .  S
C1677      C1926   1.413       .  A
C1678      C1925   1.413       .  A
C1678      C1679   1.507       .  S
C1679      H1683   1.110       .  S
C1679      H1932   1.108       .  S
C1679      H1685   1.108       .  S
C1682      H1686   1.109       .  S
C1682      H1935   1.110       .  S
C1682      H1688   1.111       .  S
H1684      C1927   1.107       .  S
H1687      C1930   1.110       .  S
C1689      C1938   1.402       .  A
C1689      C1942   1.407       .  A
C1689      H1696   1.084       .  S
C1690      C1937   1.401       .  A
C1690      C1691   1.411   1_556  A
C1691      C1692   1.400       .  A
C1691      C1698   1.507       .  S
C1692      C1693   1.403   1_554  A
C1692      H1697   1.084       .  S
C1693      C1694   1.417       .  A
C1694      C1937   1.406       .  A
C1694      C1943   1.507       .  S
C1695      C1942   1.507       .  S
C1695      H1699   1.110       .  S
C1695      H1948   1.110       .  S
C1695      H1701   1.109       .  S
C1698      H1702   1.110       .  S
C1698      H1951   1.110       .  S
C1698      H1704   1.111       .  S
H1700      C1943   1.110       .  S
H1703      C1946   1.110       .  S
C1705      C1706   1.403       .  A
C1705      C1710   1.403       .  A
C1705      H1712   1.084       .  S
C1706      C1955   1.416       .  A
C1706      C1757   1.485       .  S
C1707      C1954   1.416       .  A
C1707      C1708   1.401       .  A
C1707      C1714   1.509       .  S
C1708      C1957   1.400       .  A
C1708      H1713   1.085       .  S
C1709      C1956   1.400       .  A
C1709      C1710   1.411       .  A
C1710      C1711   1.505       .  S
C1711      H1715   1.111       .  S
C1711      H1964   1.110       .  S
C1711      H1717   1.110       .  S
C1714      H1718   1.108       .  S
C1714      H1967   1.110       .  S
C1714      H1720   1.110       .  S
H1716      C1959   1.110       .  S
H1719      C1962   1.110       .  S
C1721      C1722   1.403       .  A
C1721      C1726   1.404       .  A
C1721      H1728   1.083       .  S
C1722      C1971   1.414       .  A
C1722      C1760   1.485       .  S
C1723      C1970   1.415   1_554  A
C1723      C1724   1.403       .  A
C1723      C1730   1.508       .  S
C1724      C1973   1.401   1_554  A
C1724      H1729   1.084       .  S
C1725      C1972   1.401       .  A
C1725      C1726   1.412       .  A
C1726      C1727   1.507       .  S
C1727      H1731   1.110       .  S
C1727      H1732   1.110       .  S
C1727      H1733   1.111       .  S
C1730      H1734   1.111       .  S
C1730      H1735   1.108       .  S
C1730      H1736   1.111       .  S
N1737      H1769   1.038       .  S
N1737      C1741   1.351       .  A
N1738      C1745   1.350   1_455  A
N1739      H1770   1.036   1_545  S
N1739      C1744   1.353   1_545  A
N1740      C1748   1.350       .  A
C1741      C1749   1.388       .  A
C1741      C1757   1.414       .  A
C1742      C1758   1.413       .  A
C1742      C1750   1.387       .  A
C1743      C1751   1.387       .  A
C1743      C1760   1.416       .  A
C1744      C1759   1.416       .  A
C1744      C1752   1.388       .  A
C1745      C1757   1.411       .  A
C1745      C1753   1.386       .  A
C1746      C1760   1.410       .  A
C1746      C1754   1.386       .  A
C1747      C1755   1.385       .  A
C1747      C1758   1.411       .  A
C1748      C1756   1.387       .  A
C1748      C1759   1.412       .  A
C1749      H1761   1.083       .  S
C1750      H1762   1.082       .  S
C1751      H1763   1.082       .  S
C1752      H1764   1.082       .  S
C1753      H1765   1.082       .  S
C1754      H1766   1.082       .  S
C1755      H1767   1.082       .  S
C1756      H1768   1.082       .  S
C1758      C1938   1.486       .  S
C1759      C1925   1.484       .  S
N1771      H1803   1.039       .  S
N1771      C1775   1.352       .  A
N1772      C1779   1.349   1_455  A
N1773      H1804   1.038   1_565  S
N1773      C1778   1.353       .  A
N1774      C1782   1.350       .  A
C1775      C1783   1.386       .  A
C1775      C1791   1.411       .  A
C1776      C1792   1.415       .  A
C1776      C1784   1.388       .  A
C1777      C1785   1.387       .  A
C1777      C1794   1.414       .  A
C1778      C1793   1.416       .  A
C1778      C1786   1.388       .  A
C1779      C1791   1.408       .  A
C1779      C1787   1.385       .  A
C1780      C1794   1.409       .  A
C1780      C1788   1.386       .  A
C1781      C1789   1.387       .  A
C1781      C1792   1.413       .  A
C1782      C1790   1.385       .  A
C1782      C1793   1.410       .  A
C1783      H1795   1.082       .  S
C1784      H1796   1.082       .  S
C1785      H1797   1.082       .  S
C1786      H1798   1.082       .  S
C1787      H1799   1.082       .  S
C1788      H1800   1.082       .  S
C1789      H1801   1.082       .  S
C1790      H1802   1.082       .  S
C1791      C1890   1.483       .  S
C1792      C1874   1.491       .  S
C1793      C1861   1.485       .  S
C1794      C1906   1.482       .  S
O1805     Ni1811   1.929       .  S
O1805      C1826   1.271       .  A
O1806     Ni1829   1.902       .  S
O1807      H1830   0.967       .  S
O1807     Ni1823   1.909   1_556  S
C1808      C1973   1.472       .  S
C1808      O1825   1.265   1_556  A
C1808      O1817   1.270       .  A
O1809     Ni1828   1.922       .  S
O1809      C1815   1.270   1_556  A
O1810     Ni1828   1.901       .  S
O1810      C1812   1.271       .  A
Ni1811     O1814   1.934       .  S
Ni1811     O1816   1.895       .  S
C1812      C1844   1.466       .  S
C1812      O1822   1.279       .  A
O1813     Ni1829   1.905       .  S
O1813      C1819   1.268       .  A
O1814      C1819   1.274       .  A
C1815      C1957   1.470       .  S
O1816      C1818   1.268       .  A
O1817     Ni1828   1.934       .  S
C1818      C1838   1.466       .  S
C1818      O1824   1.276       .  A
C1819      C1941   1.480       .  S
H1820      O1821   0.967       .  S
O1821     Ni1829   1.929       .  S
O1822     Ni1823   1.947   1_556  S
Ni1823     O1827   1.906   1_554  S
Ni1823     O1825   1.908       .  S
O1824     Ni1829   1.945       .  S
C1826      C1922   1.475       .  S
O1831     Ni1837   1.931       .  S
O1831      C1852   1.269       .  A
O1832     Ni1855   1.904       .  S
O1832      C1841   1.266       .  A
O1833      H1856   0.966       .  S
O1833     Ni1837   1.926       .  S
O1833     Ni1855   1.917       .  S
O1833     Ni1849   1.910       .  S
C1834      C1909   1.474       .  S
C1834      O1851   1.268       .  A
C1834      O1843   1.274       .  A
O1835     Ni1854   1.927       .  S
O1835      C1841   1.272       .  A
O1836     Ni1854   1.904       .  S
O1836      C1838   1.267       .  A
Ni1837     O1840   1.927       .  S
Ni1837     O1842   1.906       .  S
C1838      O1848   1.274       .  A
O1839     Ni1855   1.906       .  S
O1839      C1845   1.269       .  A
O1840      C1845   1.274       .  A
C1841      C1893   1.482       .  S
O1842      C1844   1.268       .  A
O1843     Ni1854   1.933       .  S
C1844      O1850   1.271       .  A
C1845      C1877   1.474       .  S
H1846      O1847   0.967       .  S
O1847     Ni1855   1.913       .  S
O1847     Ni1849   1.910       .  S
O1847     Ni1854   1.921       .  S
O1848     Ni1849   1.933       .  S
Ni1849     O1853   1.907       .  S
Ni1849     O1851   1.902       .  S
O1850     Ni1855   1.924       .  S
C1852      C1858   1.473       .  S
C1852      O1853   1.264       .  A
C1857      C1858   1.403       .  A
C1857      C1862   1.404       .  A
C1857      H1864   1.085       .  S
C1858      C1859   1.412       .  A
C1859      C1860   1.403       .  A
C1859      C1866   1.507       .  S
C1860      C1861   1.402       .  A
C1860      H1865   1.084       .  S
C1861      C1862   1.414       .  A
C1862      C1863   1.508       .  S
C1863      H1867   1.109       .  S
C1863      H1868   1.110       .  S
C1863      H1869   1.109       .  S
C1866      H1870   1.110       .  S
C1866      H1871   1.110       .  S
C1866      H1872   1.110       .  S
C1873      C1874   1.404       .  A
C1873      C1878   1.403       .  A
C1873      H1880   1.084       .  S
C1874      C1875   1.418       .  A
C1875      C1876   1.401       .  A
C1875      C1882   1.509       .  S
C1876      C1877   1.401       .  A
C1876      H1881   1.085       .  S
C1877      C1878   1.413       .  A
C1878      C1879   1.506       .  S
C1879      H1883   1.110       .  S
C1879      H1884   1.109       .  S
C1879      H1885   1.111       .  S
C1882      H1886   1.108       .  S
C1882      H1887   1.110       .  S
C1882      H1888   1.108       .  S
C1889      C1890   1.402       .  A
C1889      C1894   1.407       .  A
C1889      H1896   1.084       .  S
C1890      C1891   1.410       .  A
C1891      C1892   1.399       .  A
C1891      C1898   1.509       .  S
C1892      C1893   1.405       .  A
C1892      H1897   1.084       .  S
C1893      C1894   1.419       .  A
C1894      C1895   1.508       .  S
C1895      H1899   1.111       .  S
C1895      H1900   1.110       .  S
C1895      H1901   1.109       .  S
C1898      H1902   1.110       .  S
C1898      H1903   1.110       .  S
C1898      H1904   1.111       .  S
C1905      C1906   1.402       .  A
C1905      C1910   1.402       .  A
C1905      H1912   1.084       .  S
C1906      C1907   1.414       .  A
C1907      C1908   1.402       .  A
C1907      C1914   1.508       .  S
C1908      C1909   1.404       .  A
C1908      H1913   1.084       .  S
C1909      C1910   1.413       .  A
C1910      C1911   1.508       .  S
C1911      H1915   1.106       .  S
C1911      H1916   1.109       .  S
C1911      H1917   1.111       .  S
C1914      H1918   1.111       .  S
C1914      H1919   1.108       .  S
C1914      H1920   1.110       .  S
C1921      C1926   1.404       .  A
C1921      H1928   1.085       .  S
C1922      C1923   1.415       .  A
C1923      C1924   1.402       .  A
C1923      C1930   1.508       .  S
C1924      C1925   1.401       .  A
C1924      H1929   1.084       .  S
C1926      C1927   1.506       .  S
C1927      H1931   1.110       .  S
C1927      H1933   1.108       .  S
C1930      H1934   1.109       .  S
C1930      H1936   1.111       .  S
C1937      H1944   1.084       .  S
C1938      C1939   1.410       .  A
C1939      C1940   1.400       .  A
C1939      C1946   1.506       .  S
C1940      C1941   1.404       .  A
C1940      H1945   1.084       .  S
C1941      C1942   1.417       .  A
C1943      H1947   1.110       .  S
C1943      H1949   1.109       .  S
C1946      H1950   1.110       .  S
C1946      H1952   1.111       .  S
C1953      C1954   1.403   1_556  A
C1953      C1958   1.404       .  A
C1953      H1960   1.084       .  S
C1955      C1956   1.400       .  A
C1955      C1962   1.509       .  S
C1956      H1961   1.085       .  S
C1957      C1958   1.411   1_554  A
C1958      C1959   1.506       .  S
C1959      H1963   1.111       .  S
C1959      H1965   1.110       .  S
C1962      H1966   1.108       .  S
C1962      H1968   1.110       .  S
C1969      C1970   1.404       .  A
C1969      C1974   1.405       .  A
C1969      H1976   1.084       .  S
C1971      C1972   1.401       .  A
C1971      C1978   1.508       .  S
C1972      H1977   1.081       .  S
C1973      C1974   1.412       .  A
C1974      C1975   1.507       .  S
C1975      H1979   1.110       .  S
C1975      H1980   1.110       .  S
C1975      H1981   1.111       .  S
C1978      H1982   1.111       .  S
C1978      H1983   1.108       .  S
C1978      H1984   1.110       .  S
