geometry optimzed in LAMMPS
_audit_creation_date              2020-11-30 
_audit_creation_method            'lammps2cif' 
_symmetry_space_group_name_H-M    'P1' 
_symmetry_Int_Tables_number       1 
_symmetry_cell_setting            triclinic 
loop_ 
_symmetry_equiv_pos_as_xyz 
  x,y,z 
_cell_length_a                    39.58742979 
_cell_length_b                    39.72403197753092 
_cell_length_c                    39.67124083194577 
_cell_angle_alpha                 90.11788521006844 
_cell_angle_beta                  89.93065259431354 
_cell_angle_gamma                 89.90437275059695 
loop_ 
_atom_site_label 
_atom_site_type_symbol 
_atom_site_fract_x 
_atom_site_fract_y 
_atom_site_fract_z 
_atom_site_charge 
N1          N  0.00161802  0.25035000  0.30237061    -0.36400
N2          N  0.99851511  0.19787268  0.25179793    -0.57000
N3          N  0.99874252  0.24880579  0.19929991    -0.36400
N4          N  0.99871318  0.30138945  0.24965665    -0.57000
C5          C  0.99318811  0.22331928  0.32132969     0.27200
C6          C  0.99349254  0.27821385  0.32030784     0.27200
C7          C  0.98971576  0.22102114  0.18171956     0.27200
C8          C  0.99024571  0.27589865  0.18045544     0.27200
C9          C  0.00665725  0.17937672  0.27915346     0.35800
C10         C  0.00529383  0.17848860  0.22461352     0.35800
C11         C  0.00663402  0.32076559  0.27653119     0.35800
C12         C  0.00517724  0.32005160  0.22191118     0.35800
C13         C  0.97939729  0.23415069  0.35163203    -0.21700
C14         C  0.97969230  0.26882755  0.35102782    -0.21700
C15         C  0.97508517  0.23058952  0.15145133    -0.21700
C16         C  0.97549249  0.26524741  0.15062655    -0.21700
C17         C  0.01903983  0.14819849  0.26933256    -0.22800
C18         C  0.01821735  0.14764874  0.23470619    -0.22800
C19         C  0.01833186  0.35185050  0.26583991    -0.22800
C20         C  0.01740720  0.35139389  0.23119277    -0.22800
C21         C  0.99980839  0.18933064  0.31267925    -0.18100
C22         C  0.00040212  0.31172737  0.31042980    -0.18100
C23         C  0.99781176  0.30975487  0.18855710    -0.18100
C24         C  0.99710191  0.18742519  0.19114837    -0.18100
H25         H  0.97036874  0.21870835  0.37219160     0.14800
H26         H  0.97096997  0.28525768  0.37103236     0.14800
H27         H  0.96562321  0.21428239  0.13173401     0.14800
H28         H  0.96636275  0.28082051  0.13020730     0.14800
H29         H  0.02720815  0.12778659  0.28542684     0.13100
H30         H  0.02569352  0.12672619  0.21883814     0.13100
H31         H  0.02619285  0.37284056  0.28138274     0.13100
H32         H  0.02448249  0.37192700  0.21476108     0.13100
H33         H  0.01571711  0.24988816  0.28021461     0.26300
H34         H  0.01371905  0.24913650  0.22083399     0.26300
O35         O  0.50074012  0.09442161  0.05723464    -0.86300
O36         O  0.50440313  0.40141689  0.05184520    -0.86500
O37         O  0.44790488  0.00091671  0.09782859    -0.88100
O38         O  0.05788186  0.99703738  0.09413324    -0.86900
O39         O  0.09773315  0.50258370  0.05388953    -0.86500
O40         O  0.40671875  0.49860714  0.05680382    -0.87900
O41         O  0.50149829  0.44123866  0.09382489    -0.86300
O42         O  0.50005711  0.05309138  0.09764883    -0.85900
Zr43       Zr  0.50279538  0.49727041  0.06832795     2.84300
O44         O  0.03708403  0.46599977  0.03309646    -1.07900
O45         O  0.46746066  0.03353039  0.03564720    -1.08600
C46         C  0.50007508  0.08421459  0.08812508     1.06800
C47         C  0.50262740  0.41048381  0.08309502     1.06700
C48         C  0.41680146  0.00344979  0.08847406     1.09700
C49         C  0.08867670  0.99877748  0.08345917     1.07500
H50         H  0.45473750  0.44904299  0.04738418     0.33100
O51         O  0.46864832  0.46373196  0.03381674    -1.28900
H52         H  0.04971286  0.04740175  0.04853256     0.32700
O53         O  0.03549989  0.03352433  0.03445723    -1.30500
O54         O  0.50436606  0.40479244  0.44409774    -0.86300
O55         O  0.50028625  0.09573629  0.44646677    -0.87800
O56         O  0.40741990  0.44422393  0.49633791    -0.86400
O57         O  0.10029518  0.44956252  0.49595797    -0.86400
O58         O  0.09571271  0.05608511  0.50007436    -0.86100
O59         O  0.40373171  0.05400518  0.50266598    -0.85900
O60         O  0.44461455  0.49852108  0.40572930    -0.86300
O61         O  0.05434107  0.50282574  0.40332097    -0.85800
O62         O  0.40431317  0.50036285  0.44735013    -0.86800
O63         O  0.09616483  0.50568861  0.44331718    -0.86000
O64         O  0.44942224  0.40413283  0.49622352    -0.86400
O65         O  0.44475962  0.09483644  0.50305686    -0.86100
O66         O  0.05465392  0.09668944  0.50259206    -0.85800
O67         O  0.06043350  0.40766587  0.49842132    -0.86200
O68         O  0.49968128  0.44582184  0.40366328    -0.86500
O69         O  0.49686481  0.05520489  0.40519599    -0.87800
Zr70       Zr  0.50395068  0.43239908  0.49890546     2.83100
Zr71       Zr  0.50009666  0.06790410  0.50115018     2.83500
Zr72       Zr  0.43364419  0.49927696  0.50110570     2.84100
Zr73       Zr  0.06993848  0.50290362  0.49894023     2.83400
Zr74       Zr  0.50023372  0.50064311  0.43203935     2.84200
O75         O  0.03287363  0.03460888  0.46591685    -1.08400
O76         O  0.46792246  0.46587440  0.46640391    -1.07900
C77         C  0.50196850  0.41478777  0.41324965     1.06800
C78         C  0.49865506  0.08613068  0.41537290     1.09400
C79         C  0.41819741  0.41357279  0.49501350     1.06900
C80         C  0.09124352  0.41834754  0.49665455     1.07300
C81         C  0.08593467  0.08714311  0.50143602     1.06900
C82         C  0.41369119  0.08492631  0.50326201     1.06400
C83         C  0.41369732  0.49906833  0.41622027     1.06900
C84         C  0.08556724  0.50445792  0.41252841     1.06400
H85         H  0.45063924  0.04837626  0.45377164     0.33100
O86         O  0.46506821  0.03422903  0.46739942    -1.29500
H87         H  0.05065877  0.45505358  0.44994178     0.33100
O88         O  0.03648986  0.46844194  0.46459194    -1.30900
N89         N  0.25173221  0.00474903  0.19843822    -0.36400
N90         N  0.30141559  0.00547560  0.25192889    -0.57000
N91         N  0.24741312  0.00370638  0.30138731    -0.36400
N92         N  0.19770838  0.99976909  0.24793299    -0.57000
C93         C  0.28030962  0.99810996  0.18090977     0.27200
C94         C  0.22537738  0.99557356  0.17884229     0.27200
C95         C  0.27455982  0.99699607  0.32098685     0.27200
C96         C  0.21957870  0.99408214  0.31869135     0.27200
C97         C  0.32137756  0.01346008  0.22548881     0.35800
C98         C  0.31916562  0.01287441  0.28004097     0.35800
C99         C  0.17961439  0.00685857  0.22001221     0.35800
C100        C  0.17716974  0.00600225  0.27443241     0.35800
C101        C  0.27199388  0.98443773  0.14978803    -0.21700
C102        C  0.23727344  0.98286380  0.14848035    -0.21700
C103        C  0.26387334  0.98290946  0.35111001    -0.21700
C104        C  0.22915665  0.98107574  0.34966632    -0.21700
C105        C  0.35188023  0.02626359  0.23683483    -0.22800
C106        C  0.35054299  0.02572075  0.27146201    -0.22800
C107        C  0.14746941  0.01770564  0.22877258    -0.22800
C108        C  0.14595065  0.01725416  0.26333334    -0.22800
C109        C  0.31342425  0.00635684  0.19149269    -0.18100
C110        C  0.19098559  0.00098225  0.18679976    -0.18100
C111        C  0.18577076  0.99949404  0.30829795    -0.18100
C112        C  0.30842277  0.00532641  0.31314818    -0.18100
H113        H  0.28911623  0.97683065  0.12988216     0.14800
H114        H  0.22247019  0.97389485  0.12738039     0.14800
H115        H  0.27943072  0.97520972  0.37215291     0.14800
H116        H  0.21279040  0.97171013  0.36939405     0.14800
H117        H  0.37311389  0.03447552  0.22175165     0.13100
H118        H  0.37051566  0.03345315  0.28838594     0.13100
H119        H  0.12716407  0.02493265  0.21202130     0.13100
H120        H  0.12425869  0.02412538  0.27849856     0.13100
H121        H  0.25013044  0.01857672  0.22067527     0.26300
H122        H  0.24758021  0.01783883  0.27934848     0.26300
N123        N  0.25113765  0.20028853  0.49837562    -0.36400
N124        N  0.20065972  0.25273415  0.49517964    -0.57000
N125        N  0.25406399  0.30306312  0.48798375    -0.36400
N126        N  0.30442974  0.25054169  0.49523164    -0.57000
C127        C  0.22309545  0.18377119  0.50880441     0.27200
C128        C  0.27823950  0.18255967  0.50916303     0.27200
C129        C  0.22696958  0.32267990  0.49491005     0.27200
C130        C  0.28192880  0.32151760  0.49477142     0.27200
C131        C  0.18145350  0.22532874  0.48861681     0.35800
C132        C  0.18295508  0.27976829  0.48436106     0.35800
C133        C  0.32319590  0.22231200  0.49168664     0.35800
C134        C  0.32464212  0.27654315  0.48664309     0.35800
C135        C  0.23258113  0.15547152  0.52697402    -0.21700
C136        C  0.26740700  0.15459623  0.52699766    -0.21700
C137        C  0.23773983  0.35400301  0.50603074    -0.21700
C138        C  0.27244688  0.35330355  0.50582371    -0.21700
C139        C  0.15180409  0.23500156  0.47277526    -0.22800
C140        C  0.15250114  0.26958116  0.47062522    -0.22800
C141        C  0.35543550  0.23043786  0.48065602    -0.22800
C142        C  0.35636554  0.26483407  0.47756886    -0.22800
C143        C  0.18950481  0.19230711  0.49953141    -0.18100
C144        C  0.31228645  0.18974165  0.50096899    -0.18100
C145        C  0.31563765  0.31080290  0.48991551    -0.18100
C146        C  0.19293520  0.31356718  0.48940552    -0.18100
H147        H  0.21615262  0.13703392  0.53851254     0.14800
H148        H  0.28299342  0.13538882  0.53850707     0.14800
H149        H  0.22226696  0.37526048  0.51341808     0.14800
H150        H  0.28880850  0.37386589  0.51310194     0.14800
H151        H  0.13152113  0.21891023  0.46419792     0.13100
H152        H  0.13289655  0.28544700  0.46018398     0.13100
H153        H  0.37631726  0.21348686  0.47582920     0.13100
H154        H  0.37805729  0.27957795  0.47003043     0.13100
H155        H  0.25177823  0.22004255  0.48117283     0.26300
H156        H  0.25354135  0.27968295  0.47611253     0.26300
C157        C  0.34285173  0.33659176  0.49041319    -0.05300
C158        C  0.34325494  0.36224063  0.46606797    -0.32700
C159        C  0.36771688  0.38764908  0.46727344     0.36500
C160        C  0.39260766  0.38703750  0.49257517    -0.05600
C161        C  0.39323826  0.35920584  0.01480783    -0.32600
C162        C  0.36814151  0.33447725  0.01398289     0.36400
H163        H  0.32430860  0.36271268  0.44638178     0.16800
O164        O  0.36781061  0.41230708  0.44308465    -0.60100
H165        H  0.41278913  0.35784108  0.03386400     0.16800
O166        O  0.36814002  0.30959737  0.03793397    -0.60200
H167        H  0.38642474  0.29387311  0.03116789     0.43800
H168        H  0.35128848  0.42936890  0.45102929     0.43800
C169        C  0.38738770  0.11116582  0.50380092    -0.05300
C170        C  0.35916510  0.10812225  0.48266263    -0.32700
C171        C  0.33480229  0.13366232  0.48138713     0.36500
C172        C  0.33764048  0.16202687  0.50256353    -0.05600
C173        C  0.36751148  0.16709111  0.02021033    -0.32600
C174        C  0.39273162  0.14244642  0.02111956     0.36400
H175        H  0.35665728  0.08649200  0.46616216     0.16800
O176        O  0.30869803  0.13112252  0.45882332    -0.60100
H177        H  0.37057376  0.18985014  0.03498981     0.16800
O178        O  0.42100659  0.14792007  0.04033032    -0.60200
H179        H  0.41653937  0.13641578  0.06203684     0.43800
H180        H  0.31821573  0.13867036  0.43697361     0.43800
C181        C  0.16658396  0.34042185  0.49085753    -0.05300
C182        C  0.16787821  0.36790189  0.46861240    -0.32700
C183        C  0.14429640  0.39420135  0.47107290     0.36500
C184        C  0.11811193  0.39253843  0.49513649    -0.05600
C185        C  0.11682158  0.36443386  0.01781896    -0.32600
C186        C  0.14141801  0.33907952  0.01644133     0.36400
H187        H  0.18755645  0.36915325  0.44964930     0.16800
O188        O  0.14700870  0.42130674  0.44985930    -0.60100
H189        H  0.09804397  0.36385598  0.03768343     0.16800
O190        O  0.14191134  0.31475207  0.04092592    -0.60200
H191        H  0.15890523  0.32252866  0.05755377     0.43800
H192        H  0.13466535  0.41475069  0.42913091     0.43800
C193        C  0.11261667  0.11381575  0.50155988    -0.05300
C194        C  0.10701571  0.14504500  0.01599797    -0.32700
C195        C  0.13203043  0.17018410  0.01687646     0.36500
C196        C  0.16250303  0.16559647  0.50062662    -0.05600
C197        C  0.16878514  0.13399157  0.48592202    -0.32600
C198        C  0.14480695  0.10811740  0.48725538     0.36400
H199        H  0.08282754  0.15006774  0.02776525     0.16800
O200        O  0.12590421  0.19952309  0.03422996    -0.60100
H201        H  0.19274774  0.12911698  0.47359898     0.16800
O202        O  0.15306745  0.07746882  0.47379991    -0.60200
H203        H  0.16441661  0.06503867  0.49226796     0.43800
H204        H  0.10659342  0.21045767  0.02265785     0.43800
C205        C  0.33424581  0.00404729  0.34040936    -0.05300
C206        C  0.36325787  0.47500155  0.33895448    -0.32700
C207        C  0.38908965  0.47600175  0.36286392     0.36500
C208        C  0.38683604  0.49806037  0.39055054    -0.05600
C209        C  0.35972905  0.02652254  0.39158097    -0.32600
C210        C  0.33479737  0.02815874  0.36647257     0.36400
H211        H  0.36521636  0.45756973  0.31798963     0.16800
O212        O  0.41613797  0.45477385  0.35933495    -0.60100
H213        H  0.36019659  0.04553650  0.41119879     0.16800
O214        O  0.31175080  0.05397121  0.36691957    -0.60200
H215        H  0.29447865  0.04721891  0.38370641     0.43800
H216        H  0.43140689  0.46610781  0.34310215     0.43800
C217        C  0.11120940  0.50376170  0.38556314    -0.05300
C218        C  0.10668431  0.48226132  0.35781168    -0.32700
C219        C  0.13142083  0.47979102  0.33266354     0.36500
C220        C  0.15861337  0.99989148  0.33435354    -0.05600
C221        C  0.16059459  0.02331104  0.36070226    -0.32600
C222        C  0.13616340  0.02407980  0.38616443     0.36400
H223        H  0.08433889  0.46662843  0.35607804     0.16800
O224        O  0.12721089  0.45728106  0.30671428    -0.60100
H225        H  0.18149886  0.04086458  0.36175569     0.16800
O226        O  0.13927924  0.04697546  0.41175990    -0.60200
H227        H  0.15900842  0.03901302  0.42491948     0.43800
H228        H  0.10836215  0.46633028  0.29297143     0.43800
C229        C  0.11541637  0.99847843  0.10914224    -0.05300
C230        C  0.14161133  0.02219308  0.10762449    -0.32700
C231        C  0.16634616  0.02325081  0.13275970     0.36500
C232        C  0.16557166  0.99978077  0.15931519    -0.05600
C233        C  0.13948386  0.47810683  0.16229116    -0.32600
C234        C  0.11379259  0.47804829  0.13814305     0.36400
H235        H  0.14231569  0.04052351  0.08743779     0.16800
O236        O  0.19092749  0.04752140  0.13141396    -0.60100
H237        H  0.13868660  0.45994105  0.18261961     0.16800
O238        O  0.08794738  0.45526439  0.14104732    -0.60200
H239        H  0.09442119  0.43613282  0.12629172     0.43800
H240        H  0.18340043  0.06532088  0.14730910     0.43800
C241        C  0.39115135  0.00556380  0.11536321    -0.06200
C242        C  0.39239763  0.47424324  0.14023983    -0.32700
C243        C  0.36797723  0.47418864  0.16586128     0.36500
C244        C  0.34099958  0.00659008  0.16590899    -0.05600
C245        C  0.33946143  0.02917393  0.13875180    -0.32600
C246        C  0.36431278  0.02880439  0.11358908     0.36400
H247        H  0.41194707  0.45511636  0.14023482     0.16800
O248        O  0.36898149  0.44970723  0.19019635    -0.60100
H249        H  0.31883834  0.04706021  0.13707290     0.16800
O250        O  0.36300390  0.05217795  0.08819839    -0.60200
H251        H  0.34780280  0.04238204  0.07094233     0.43800
H252        H  0.38827926  0.45575025  0.20493259     0.43800
C253        C  0.49939983  0.16312984  0.33909295    -0.05300
C254        C  0.01975635  0.16602210  0.36791869    -0.32700
C255        C  0.01923674  0.14164874  0.39338552     0.36500
C256        C  0.49896139  0.11277080  0.38936419    -0.05600
C257        C  0.47756637  0.11027986  0.36128157    -0.32600
C258        C  0.47732480  0.13540019  0.33654147     0.36400
H259        H  0.03675939  0.18725110  0.37019632     0.16800
O260        O  0.04000265  0.14547050  0.42079361    -0.60100
H261        H  0.46055916  0.08907112  0.35880778     0.16800
O262        O  0.45550201  0.13259633  0.30985566    -0.60200
H263        H  0.43453126  0.14412746  0.31726920     0.43800
H264        H  0.06183469  0.13518612  0.41404505     0.43800
C265        C  0.50009751  0.33826664  0.33654291    -0.05300
C266        C  0.02422343  0.33774684  0.36277322    -0.32700
C267        C  0.02483475  0.36299407  0.38750959     0.36500
C268        C  0.50174226  0.38847890  0.38688404    -0.05600
C269        C  0.47756548  0.38968689  0.36109630    -0.32600
C270        C  0.47621137  0.36453440  0.33639616     0.36400
H271        H  0.04244914  0.31740253  0.36392876     0.16800
O272        O  0.04878016  0.36165668  0.41244965    -0.60100
H273        H  0.45920766  0.40974696  0.36058961     0.16800
O274        O  0.45145012  0.36575276  0.31226828    -0.60200
H275        H  0.43317756  0.35098852  0.32082465     0.43800
H276        H  0.04066060  0.34428161  0.42842603     0.43800
C277        C  0.49861900  0.33511618  0.16066313    -0.05300
C278        C  0.02111385  0.33202936  0.13413864    -0.32700
C279        C  0.02221807  0.35595644  0.10816872     0.36500
C280        C  0.50099370  0.38369663  0.10883209    -0.05600
C281        C  0.47622854  0.38556834  0.13412672    -0.32600
C282        C  0.47474615  0.36138669  0.15975021     0.36400
H283        H  0.03851802  0.31095232  0.13355810     0.16800
O284        O  0.04549492  0.35228484  0.08279285    -0.60100
H285        H  0.45781726  0.40578432  0.13389075     0.16800
O286        O  0.44939870  0.36303671  0.18331763    -0.60200
H287        H  0.45543730  0.38209805  0.19831245     0.43800
H288        H  0.03396470  0.33871379  0.06524391     0.43800
C289        C  0.49937222  0.11048732  0.11455333    -0.05300
C290        C  0.47809463  0.10700321  0.14269306    -0.32700
C291        C  0.47642281  0.13232159  0.16732603     0.36500
C292        C  0.49701893  0.16112345  0.16455911    -0.05600
C293        C  0.01853014  0.16383624  0.13676254    -0.32600
C294        C  0.01963127  0.13893923  0.11182916     0.36400
H295        H  0.46221012  0.08495487  0.14520022     0.16800
O296        O  0.45471588  0.12869135  0.19404996    -0.60100
H297        H  0.03488091  0.18556973  0.13452372     0.16800
O298        O  0.04145107  0.14266115  0.08522355    -0.60200
H299        H  0.06239717  0.13078931  0.09208556     0.43800
H300        H  0.43307158  0.13868509  0.18642724     0.43800
N301        N  0.00179840  0.25031162  0.80168687    -0.36400
N302        N  0.99566963  0.19809048  0.75123698    -0.57000
N303        N  0.99680562  0.24950511  0.69867358    -0.36400
N304        N  0.99935088  0.30171508  0.74896095    -0.57000
C305        C  0.99401117  0.22335934  0.82104466     0.27200
C306        C  0.99460974  0.27826319  0.81988284     0.27200
C307        C  0.98703390  0.22207782  0.68099506     0.27200
C308        C  0.98964258  0.27686120  0.67966421     0.27200
C309        C  0.00446280  0.17927132  0.77820326     0.35800
C310        C  0.00130176  0.17876431  0.72374386     0.35800
C311        C  0.00776744  0.32077814  0.77588302     0.35800
C312        C  0.00610871  0.32035203  0.72127147     0.35800
C313        C  0.98176259  0.23429217  0.85193694    -0.21700
C314        C  0.98208661  0.26894928  0.85119145    -0.21700
C315        C  0.97337161  0.23210243  0.65042522    -0.21700
C316        C  0.97504594  0.26669521  0.64957210    -0.21700
C317        C  0.01582738  0.14790764  0.76781798    -0.22800
C318        C  0.01380988  0.14757782  0.73325652    -0.22800
C319        C  0.02013606  0.35164101  0.76528174    -0.22800
C320        C  0.01915045  0.35134398  0.73063617    -0.22800
C321        C  0.99962588  0.18929655  0.81205211    -0.18100
C322        C  0.00137180  0.31178023  0.80976691    -0.18100
C323        C  0.99813580  0.31046271  0.68793590    -0.18100
C324        C  0.99326947  0.18829144  0.69040591    -0.18100
H325        H  0.97362438  0.21892698  0.87292013     0.14800
H326        H  0.97431807  0.28539705  0.87156409     0.14800
H327        H  0.96382421  0.21610782  0.63049060     0.14800
H328        H  0.96689457  0.28250150  0.62892359     0.14800
H329        H  0.02436005  0.12733376  0.78351288     0.13100
H330        H  0.02058845  0.12670327  0.71701882     0.13100
H331        H  0.02849945  0.37238172  0.78089791     0.13100
H332        H  0.02664609  0.37178372  0.71427023     0.13100
H333        H  0.01488424  0.24968367  0.77894024     0.26300
H334        H  0.01148406  0.24922838  0.72038738     0.26300
O335        O  0.49861656  0.09548344  0.55589189    -0.86300
O336        O  0.50321534  0.40269990  0.55248951    -0.86500
O337        O  0.44775623  0.99894392  0.59821870    -0.88100
O338        O  0.05638708  0.99713746  0.59583767    -0.86900
O339        O  0.09921231  0.50206015  0.55294776    -0.86500
O340        O  0.40638274  0.50026881  0.55641399    -0.87900
O341        O  0.50041377  0.44279166  0.59418352    -0.86300
O342        O  0.49782819  0.05442264  0.59663311    -0.85900
Zr343      Zr  0.50232605  0.49866437  0.56818658     2.84300
O344        O  0.03788717  0.46691411  0.53307056    -1.07900
O345        O  0.46693417  0.03327414  0.53545174    -1.08600
C346        C  0.49741573  0.08550815  0.58682034     1.06800
C347        C  0.50127504  0.41193897  0.58365941     1.06700
C348        C  0.41663791  0.00030184  0.58878253     1.09700
C349        C  0.08718985  0.99867633  0.58506020     1.07500
H350        H  0.45454151  0.45017158  0.54746769     0.33100
O351        O  0.46853048  0.46466990  0.53387180    -1.28900
H352        H  0.04840028  0.04800999  0.54950706     0.32700
O353        O  0.03437268  0.03400590  0.53539165    -1.30500
O354        O  0.50358802  0.40565048  0.94276468    -0.86300
O355        O  0.50179314  0.09676409  0.94749682    -0.87800
O356        O  0.40762745  0.44345842  0.99600657    -0.86400
O357        O  0.09928155  0.44810277  0.99535954    -0.86400
O358        O  0.09610904  0.05592184  0.99873573    -0.86100
O359        O  0.40486388  0.05523380  0.00183952    -0.85900
O360        O  0.44440149  0.50009994  0.90582651    -0.86300
O361        O  0.05301140  0.50448699  0.90317782    -0.85800
O362        O  0.40423482  0.50119866  0.94762932    -0.86800
O363        O  0.09493192  0.50844044  0.94307612    -0.86000
O364        O  0.44939002  0.40313523  0.99608432    -0.86400
O365        O  0.44614183  0.09575816  0.00339147    -0.86100
O366        O  0.05538367  0.09681611  0.00221462    -0.85800
O367        O  0.05929687  0.40630319  0.99798100    -0.86200
O368        O  0.49885290  0.44696088  0.90263161    -0.86500
O369        O  0.49777064  0.05634961  0.90614387    -0.87800
Zr370      Zr  0.50371958  0.43166433  0.99836842     2.83100
Zr371      Zr  0.50098445  0.06809827  0.00170258     2.83500
Zr372      Zr  0.43372951  0.49875202  0.00142085     2.84100
Zr373      Zr  0.06935298  0.50192734  0.99900539     2.83400
Zr374      Zr  0.50009729  0.50107842  0.93226807     2.84200
O375        O  0.03360799  0.03455493  0.96541314    -1.08400
O376        O  0.46781304  0.46573130  0.96621535    -1.07900
C377        C  0.50125890  0.41587007  0.91197724     1.06800
C378        C  0.49995718  0.08721158  0.91640736     1.09400
C379        C  0.41821860  0.41269692  0.99476275     1.06900
C380        C  0.09012431  0.41686814  0.99605921     1.07300
C381        C  0.08653578  0.08704006  0.00060960     1.06900
C382        C  0.41502272  0.08609480  0.00276794     1.06400
C383        C  0.41351447  0.50079154  0.91642492     1.06900
C384        C  0.08414486  0.50756199  0.91229911     1.06400
H385        H  0.45140819  0.04936714  0.95399566     0.33100
O386        O  0.46567698  0.03500909  0.96760668    -1.29500
H387        H  0.04981561  0.45459843  0.94954152     0.33100
O388        O  0.03563577  0.46778561  0.96440388    -1.30900
N389        N  0.25251529  0.00248645  0.69856604    -0.36400
N390        N  0.30189423  0.00304170  0.75263495    -0.57000
N391        N  0.24751277  0.00468085  0.80132627    -0.36400
N392        N  0.19828337  0.00139083  0.74718924    -0.57000
C393        C  0.28094666  0.99361834  0.68184985     0.27200
C394        C  0.22600392  0.99412341  0.67878152     0.27200
C395        C  0.27432207  0.99805223  0.82143549     0.27200
C396        C  0.21934015  0.99537960  0.81825131     0.27200
C397        C  0.32220528  0.00943403  0.72605617     0.35800
C398        C  0.31940367  0.01185253  0.78046254     0.35800
C399        C  0.18049680  0.00843638  0.71909028     0.35800
C400        C  0.17755210  0.00779604  0.77343324     0.35800
C401        C  0.27239349  0.97926784  0.65109878    -0.21700
C402        C  0.23764859  0.97968344  0.64913033    -0.21700
C403        C  0.26309525  0.98441007  0.85155445    -0.21700
C404        C  0.22838198  0.98265656  0.84952601    -0.21700
C405        C  0.35272203  0.02256341  0.73698426    -0.22800
C406        C  0.35097309  0.02402230  0.77155576    -0.22800
C407        C  0.14837549  0.01964484  0.72747761    -0.22800
C408        C  0.14650743  0.01924102  0.76201776    -0.22800
C409        C  0.31422243  0.00117953  0.69238187    -0.18100
C410        C  0.19181109  0.00128727  0.68616021    -0.18100
C411        C  0.18570017  0.00092274  0.80729353    -0.18100
C412        C  0.30838629  0.00572507  0.81373326    -0.18100
H413        H  0.28943477  0.97008468  0.63179199     0.14800
H414        H  0.22269332  0.97080774  0.62810193     0.14800
H415        H  0.27829384  0.97681684  0.87289389     0.14800
H416        H  0.21165907  0.97354544  0.86907752     0.14800
H417        H  0.37414186  0.02987271  0.72169695     0.13100
H418        H  0.37081129  0.03256110  0.78825199     0.13100
H419        H  0.12819014  0.02666805  0.71049192     0.13100
H420        H  0.12463695  0.02605274  0.77695283     0.13100
H421        H  0.25139420  0.01729003  0.72020020     0.26300
H422        H  0.24816341  0.01847488  0.77907690     0.26300
N423        N  0.25175683  0.19991355  0.99746201    -0.36400
N424        N  0.20080352  0.25187975  0.99515271    -0.57000
N425        N  0.25348262  0.30249533  0.98754847    -0.36400
N426        N  0.30426335  0.25038291  0.99310529    -0.57000
C427        C  0.22415063  0.18335842  0.00879959     0.27200
C428        C  0.27924349  0.18262675  0.00788693     0.27200
C429        C  0.22629152  0.32179246  0.99491586     0.27200
C430        C  0.28128169  0.32092275  0.99465253     0.27200
C431        C  0.18200733  0.22423227  0.98859423     0.35800
C432        C  0.18278367  0.27861629  0.98416655     0.35800
C433        C  0.32279280  0.22233449  0.98780084     0.35800
C434        C  0.32373541  0.27654728  0.98360338     0.35800
C435        C  0.23427083  0.15545708  0.02724137    -0.21700
C436        C  0.26912317  0.15492995  0.02654823    -0.21700
C437        C  0.23687835  0.35294534  0.00662541    -0.21700
C438        C  0.27164200  0.35238635  0.00648892    -0.21700
C439        C  0.15230844  0.23343084  0.97255409    -0.22800
C440        C  0.15254124  0.26801010  0.97030463    -0.22800
C441        C  0.35406003  0.23067004  0.97440399    -0.22800
C442        C  0.35469397  0.26514140  0.97187365    -0.22800
C443        C  0.19042196  0.19146192  0.99984970    -0.18100
C444        C  0.31285463  0.18990997  0.99828631    -0.18100
C445        C  0.31496294  0.31054961  0.98882227    -0.18100
C446        C  0.19235936  0.31248513  0.98921973    -0.18100
H447        H  0.21823866  0.13701829  0.03931974     0.14800
H448        H  0.28516477  0.13602995  0.03794732     0.14800
H449        H  0.22122392  0.37397821  0.01428214     0.14800
H450        H  0.28792651  0.37290074  0.01406231     0.14800
H451        H  0.13227781  0.21703064  0.96396643     0.13100
H452        H  0.13278335  0.28359353  0.95973093     0.13100
H453        H  0.37456319  0.21380731  0.96789938     0.13100
H454        H  0.37574139  0.28014100  0.96311844     0.13100
H455        H  0.25178573  0.21929143  0.97980844     0.26300
H456        H  0.25301974  0.27943441  0.97504186     0.26300
C457        C  0.34226679  0.33617527  0.98968538    -0.05300
C458        C  0.34198050  0.36279947  0.96648550    -0.32700
C459        C  0.36666025  0.38797732  0.96782631     0.36500
C460        C  0.39248261  0.38620495  0.99213309    -0.05600
C461        C  0.39250312  0.36124447  0.51655350    -0.32600
C462        C  0.36759724  0.33635262  0.51588912     0.36400
H463        H  0.32234908  0.36418656  0.94752493     0.16800
O464        O  0.36613575  0.41352167  0.94457829    -0.60100
H465        H  0.41122457  0.36097372  0.53646797     0.16800
O466        O  0.36653299  0.31282556  0.54114633    -0.60200
H467        H  0.38641908  0.29807115  0.53736000     0.43800
H468        H  0.34698601  0.42822176  0.95128189     0.43800
C469        C  0.38887206  0.11249268  0.00242737    -0.05300
C470        C  0.35989238  0.10804272  0.98256351    -0.32700
C471        C  0.33527206  0.13322493  0.98074204     0.36500
C472        C  0.33872799  0.16281460  0.00001043    -0.05600
C473        C  0.36547633  0.16461202  0.52433445    -0.32600
C474        C  0.39052741  0.13972624  0.52463939     0.36400
H475        H  0.35682864  0.08541317  0.96757714     0.16800
O476        O  0.30819644  0.12899159  0.95961955    -0.60100
H477        H  0.36807063  0.18636203  0.54064483     0.16800
O478        O  0.41806553  0.14363368  0.54524466    -0.60200
H479        H  0.41209623  0.13191491  0.56647090     0.43800
H480        H  0.31557529  0.13831451  0.93764355     0.43800
C481        C  0.16576519  0.33906671  0.99053771    -0.05300
C482        C  0.16601925  0.36563259  0.96721555    -0.32700
C483        C  0.14205988  0.39163652  0.96925937     0.36500
C484        C  0.11689272  0.39089087  0.99441800    -0.05600
C485        C  0.11709018  0.36528609  0.51754302    -0.32600
C486        C  0.14157001  0.33987188  0.51611091     0.36400
H487        H  0.18504406  0.36629705  0.94757118     0.16800
O488        O  0.14329822  0.41749332  0.94642923    -0.60100
H489        H  0.09766724  0.36413580  0.53675964     0.16800
O490        O  0.14133862  0.31495842  0.53999247    -0.60200
H491        H  0.15690908  0.32291230  0.55788076     0.43800
H492        H  0.12897669  0.41009951  0.92731054     0.43800
C493        C  0.11334562  0.11349753  0.00106007    -0.05300
C494        C  0.10615208  0.14547464  0.51618524    -0.32700
C495        C  0.13089251  0.17094740  0.51642073     0.36500
C496        C  0.16368187  0.16466164  0.00128257    -0.05600
C497        C  0.16992385  0.13314184  0.98643757    -0.32600
C498        C  0.14563326  0.10757078  0.98710249     0.36400
H499        H  0.08205126  0.15034362  0.52820054     0.16800
O500        O  0.12454097  0.20042826  0.53342852    -0.60100
H501        H  0.19396501  0.12818347  0.97430358     0.16800
O502        O  0.15366185  0.07702191  0.97328678    -0.60200
H503        H  0.16498660  0.06431657  0.99157679     0.43800
H504        H  0.10501248  0.21096065  0.52184342     0.43800
C505        C  0.33427323  0.00448010  0.84094033    -0.05300
C506        C  0.36105203  0.47936948  0.83962839    -0.32700
C507        C  0.38661123  0.47826276  0.86389613     0.36500
C508        C  0.38659121  0.50141211  0.89077264    -0.05600
C509        C  0.35993306  0.02681514  0.89204955    -0.32600
C510        C  0.33470606  0.02831609  0.86726613     0.36400
H511        H  0.36122865  0.46117152  0.81923970     0.16800
O512        O  0.41095913  0.45380694  0.86170013    -0.60100
H513        H  0.36016726  0.04547298  0.91201343     0.16800
O514        O  0.31147392  0.05394551  0.86812679    -0.60200
H515        H  0.29371246  0.04633408  0.88400076     0.43800
H516        H  0.42881215  0.46356679  0.84716305     0.43800
C517        C  0.10951033  0.50841390  0.88511821    -0.05300
C518        C  0.10914242  0.48287290  0.86064431    -0.32700
C519        C  0.13416057  0.48132205  0.83574569     0.36500
C520        C  0.15820171  0.00124382  0.83286510    -0.05600
C521        C  0.15968118  0.02491433  0.85898124    -0.32600
C522        C  0.13530748  0.02529199  0.88443577     0.36400
H523        H  0.08997591  0.46343529  0.86149912     0.16800
O524        O  0.13429715  0.45496118  0.81336411    -0.60100
H525        H  0.18022613  0.04289148  0.85991831     0.16800
O526        O  0.13785837  0.04849995  0.90980493    -0.60200
H527        H  0.15746574  0.04080301  0.92327606     0.43800
H528        H  0.11808269  0.46142954  0.79547317     0.43800
C529        C  0.11433927  0.99842480  0.61040295    -0.05300
C530        C  0.14035743  0.02231812  0.60832787    -0.32700
C531        C  0.16600494  0.02321766  0.63256358     0.36500
C532        C  0.16626472  0.99950096  0.65884386    -0.05600
C533        C  0.13894524  0.47790494  0.66321932    -0.32600
C534        C  0.11387914  0.47747873  0.63841793     0.36400
H535        H  0.14027599  0.04088584  0.58834760     0.16800
O536        O  0.19034777  0.04768269  0.63074674    -0.60100
H537        H  0.13632757  0.46176665  0.68505506     0.16800
O538        O  0.08672634  0.45641298  0.64228346    -0.60200
H539        H  0.09191111  0.43643999  0.62814037     0.43800
H540        H  0.18106787  0.06703085  0.64361596     0.43800
C541        C  0.39098144  0.00115467  0.61560540    -0.06200
C542        C  0.39297441  0.47852926  0.64140980    -0.32700
C543        C  0.36858415  0.47871639  0.66706125     0.36500
C544        C  0.34149793  0.00135171  0.66661928    -0.05600
C545        C  0.33952246  0.02417998  0.63974577    -0.32600
C546        C  0.36402574  0.02421308  0.61435258     0.36400
H547        H  0.41344482  0.46042175  0.64250645     0.16800
O548        O  0.37051395  0.45536522  0.69241659    -0.60100
H549        H  0.31884071  0.04203827  0.63851884     0.16800
O550        O  0.36236255  0.04791392  0.58929486    -0.60200
H551        H  0.34615700  0.03878128  0.57259731     0.43800
H552        H  0.38895777  0.46325493  0.70734959     0.43800
C553        C  0.50116437  0.16302238  0.83910019    -0.05300
C554        C  0.02230046  0.16499617  0.86590141    -0.32700
C555        C  0.02240565  0.14057200  0.89138095     0.36500
C556        C  0.50032869  0.11370178  0.89034354    -0.05600
C557        C  0.47715823  0.11223606  0.86365660    -0.32600
C558        C  0.47716851  0.13682504  0.83843365     0.36400
H559        H  0.04032779  0.18546115  0.86701385     0.16800
O560        O  0.04535311  0.14310042  0.91715095    -0.60100
H561        H  0.45866526  0.09217330  0.86262271     0.16800
O562        O  0.45367838  0.13496259  0.81311762    -0.60200
H563        H  0.43556695  0.15094142  0.81973149     0.43800
H564        H  0.06598253  0.13158189  0.90878955     0.43800
C565        C  0.50282489  0.33881193  0.83575082    -0.05300
C566        C  0.02404074  0.33765254  0.86266285    -0.32700
C567        C  0.02389285  0.36260823  0.88763836     0.36500
C568        C  0.50203887  0.38961761  0.88554204    -0.05600
C569        C  0.47919843  0.39070404  0.85852000    -0.32600
C570        C  0.47897307  0.36514524  0.83412668     0.36400
H571        H  0.04207353  0.31717248  0.86430127     0.16800
O572        O  0.04683236  0.36069905  0.91345346    -0.60100
H573        H  0.46093516  0.41087032  0.85684915     0.16800
O574        O  0.45525666  0.36595640  0.80894294    -0.60200
H575        H  0.43750872  0.34984583  0.81604633     0.43800
H576        H  0.03647787  0.34538596  0.93024572     0.43800
C577        C  0.49839955  0.33621438  0.66107177    -0.05300
C578        C  0.02010498  0.33241644  0.63287002    -0.32700
C579        C  0.02069794  0.35627339  0.60687926     0.36500
C580        C  0.49968511  0.38514714  0.60944918    -0.05600
C581        C  0.47764668  0.38866084  0.63700303    -0.32600
C582        C  0.47670730  0.36434782  0.66257187     0.36400
H583        H  0.03688015  0.31087269  0.63152253     0.16800
O584        O  0.04268076  0.35193406  0.58047104    -0.60100
H585        H  0.46095124  0.41025503  0.63862481     0.16800
O586        O  0.45394676  0.36774046  0.68848547    -0.60200
H587        H  0.46210777  0.38703059  0.70212243     0.43800
H588        H  0.03015087  0.33824942  0.56371087     0.43800
C589        C  0.49586897  0.11202985  0.61298541    -0.05300
C590        C  0.47245721  0.10975676  0.63953887    -0.32700
C591        C  0.47089626  0.13482142  0.66446962     0.36500
C592        C  0.49361440  0.16212279  0.66354209    -0.05600
C593        C  0.01608916  0.16419722  0.63700244    -0.32600
C594        C  0.01733096  0.13936633  0.61205509     0.36400
H595        H  0.45511471  0.08871116  0.64069708     0.16800
O596        O  0.44749093  0.13214494  0.68986924    -0.60100
H597        H  0.03358925  0.18511329  0.63581473     0.16800
O598        O  0.04068227  0.14212568  0.58664603    -0.60200
H599        H  0.06068779  0.12934324  0.59456990     0.43800
H600        H  0.43055763  0.15000787  0.68537330     0.43800
N601        N  0.99642217  0.74935729  0.30253401    -0.36400
N602        N  0.99384371  0.69711436  0.25156626    -0.57000
N603        N  0.99498683  0.74847861  0.19967703    -0.36400
N604        N  0.99431645  0.80070843  0.25075338    -0.57000
C605        C  0.98841533  0.72206646  0.32114674     0.27200
C606        C  0.98774375  0.77684154  0.32075820     0.27200
C607        C  0.98628279  0.72094733  0.18151500     0.27200
C608        C  0.98725479  0.77588671  0.18095623     0.27200
C609        C  0.00235253  0.67855426  0.27873106     0.35800
C610        C  0.00048009  0.67783144  0.22430754     0.35800
C611        C  0.00272427  0.81943819  0.27795616     0.35800
C612        C  0.00242702  0.81914251  0.22330773     0.35800
C613        C  0.97423683  0.73221933  0.35149211    -0.21700
C614        C  0.97367842  0.76685253  0.35119707    -0.21700
C615        C  0.97279481  0.73095814  0.15088345    -0.21700
C616        C  0.97336102  0.76563641  0.15054933    -0.21700
C617        C  0.01460162  0.64737759  0.26873217    -0.22800
C618        C  0.01334017  0.64688772  0.23415777    -0.22800
C619        C  0.01663521  0.84976096  0.26775428    -0.22800
C620        C  0.01635758  0.84960633  0.23309851    -0.22800
C621        C  0.99610149  0.68848361  0.31231088    -0.18100
C622        C  0.99519616  0.81043261  0.31162873    -0.18100
C623        C  0.99489270  0.80963453  0.18975545    -0.18100
C624        C  0.99287867  0.68717349  0.19087966    -0.18100
H625        H  0.96560215  0.71635096  0.37189985     0.14800
H626        H  0.96454548  0.78281617  0.37139061     0.14800
H627        H  0.96393824  0.71493570  0.13065366     0.14800
H628        H  0.96494769  0.78146060  0.13002454     0.14800
H629        H  0.02304495  0.62695633  0.28467309     0.13100
H630        H  0.02078931  0.62605876  0.21815177     0.13100
H631        H  0.02559263  0.87007089  0.28359747     0.13100
H632        H  0.02504867  0.86975969  0.21697285     0.13100
H633        H  0.01096174  0.74923944  0.28066164     0.26300
H634        H  0.00925096  0.74847356  0.22167484     0.26300
O635        O  0.49988323  0.59327967  0.05793012    -0.86300
O636        O  0.49988075  0.90292944  0.05413072    -0.86500
O637        O  0.44835639  0.49651753  0.09706962    -0.88100
O638        O  0.05728463  0.49850075  0.09533497    -0.86900
O639        O  0.09796332  0.00089810  0.05229814    -0.86500
O640        O  0.40629382  0.00383416  0.05761336    -0.87900
O641        O  0.49855814  0.94326371  0.09563377    -0.86300
O642        O  0.49988719  0.55149583  0.09789944    -0.85900
Zr643      Zr  0.50179331  0.99873974  0.06859418     2.84300
O644        O  0.03619040  0.96563180  0.03321852    -1.07900
O645        O  0.46795523  0.53200410  0.03593850    -1.08600
C646        C  0.49927725  0.58272550  0.08865084     1.06800
C647        C  0.49844647  0.91230732  0.08534007     1.06700
C648        C  0.41715965  0.49778087  0.08765933     1.09700
C649        C  0.08818795  0.50073509  0.08505314     1.07500
H650        H  0.45256011  0.95148774  0.04865983     0.33100
O651        O  0.46674873  0.96548151  0.03476984    -1.28900
H652        H  0.04891948  0.54796198  0.04953848     0.32700
O653        O  0.03511212  0.53389515  0.03517167    -1.30500
O654        O  0.50080416  0.90399958  0.44620159    -0.86300
O655        O  0.50008521  0.59584454  0.44650692    -0.87800
O656        O  0.40513361  0.94471557  0.49751650    -0.86400
O657        O  0.09707067  0.94723700  0.49822007    -0.86400
O658        O  0.09565377  0.55848050  0.49963754    -0.86100
O659        O  0.40477194  0.55349051  0.50248508    -0.85900
O660        O  0.44225718  0.99889011  0.40607999    -0.86300
O661        O  0.05155708  0.00003433  0.40296453    -0.85800
O662        O  0.40226833  0.00188868  0.44796746    -0.86800
O663        O  0.09334968  0.00341950  0.44299866    -0.86000
O664        O  0.44676774  0.90431868  0.49809678    -0.86400
O665        O  0.44505473  0.59496024  0.50339091    -0.86100
O666        O  0.05435371  0.59879314  0.50294930    -0.85800
O667        O  0.05698155  0.90566236  0.50197385    -0.86200
O668        O  0.49618017  0.94445691  0.40528042    -0.86500
O669        O  0.49801705  0.55532945  0.40509133    -0.87800
Zr670      Zr  0.50142207  0.93218425  0.50058868     2.83100
Zr671      Zr  0.50028945  0.56815718  0.50131492     2.83500
Zr672      Zr  0.43206410  0.99968042  0.50188378     2.84100
Zr673      Zr  0.06788174  0.00116720  0.49938417     2.83400
Zr674      Zr  0.49809830  0.99993496  0.43240023     2.84200
O675        O  0.03443530  0.53648684  0.46607218    -1.08400
O676        O  0.46577212  0.96562208  0.46743569    -1.07900
C677        C  0.49799930  0.91347969  0.41523965     1.06800
C678        C  0.49883316  0.58613894  0.41541890     1.09400
C679        C  0.41562519  0.91391550  0.49650760     1.06900
C680        C  0.08790153  0.91610240  0.49992663     1.07300
C681        C  0.08558407  0.58936568  0.50130004     1.06900
C682        C  0.41415982  0.58460783  0.50351451     1.06400
C683        C  0.41139970  0.00051738  0.41670113     1.06900
C684        C  0.08277161  0.00196294  0.41214184     1.06400
H685        H  0.45157509  0.54832600  0.45326222     0.33100
O686        O  0.46620906  0.53432982  0.46686736    -1.29500
H687        H  0.04754060  0.95279282  0.45158628     0.33100
O688        O  0.03354884  0.96661952  0.46594320    -1.30900
N689        N  0.25311908  0.50052025  0.19900645    -0.36400
N690        N  0.30325338  0.49683786  0.25239192    -0.57000
N691        N  0.24938372  0.49810456  0.30176637    -0.36400
N692        N  0.19924930  0.49821378  0.24841690    -0.57000
C693        C  0.28115140  0.49253184  0.18116601     0.27200
C694        C  0.22610998  0.49431065  0.17905514     0.27200
C695        C  0.27609131  0.48991172  0.32131055     0.27200
C696        C  0.22112481  0.48971029  0.31892362     0.27200
C697        C  0.32347574  0.50393709  0.22588463     0.35800
C698        C  0.32124362  0.50397099  0.28042780     0.35800
C699        C  0.18165079  0.50765557  0.22089313     0.35800
C700        C  0.17960383  0.50575320  0.27521531     0.35800
C701        C  0.27183074  0.48103197  0.14946314    -0.21700
C702        C  0.23706604  0.48218359  0.14812905    -0.21700
C703        C  0.26472814  0.47583640  0.35120960    -0.21700
C704        C  0.22996312  0.47568871  0.34969513    -0.21700
C705        C  0.35449434  0.51554711  0.23707924    -0.22800
C706        C  0.35304681  0.51569752  0.27167387    -0.22800
C707        C  0.15072134  0.52117758  0.23018219    -0.22800
C708        C  0.14949474  0.52015190  0.26471001    -0.22800
C709        C  0.31481561  0.49817232  0.19181819    -0.18100
C710        C  0.19213855  0.50167130  0.18747449    -0.18100
C711        C  0.18782287  0.49772912  0.30879846    -0.18100
C712        C  0.31014687  0.49738808  0.31366878    -0.18100
H713        H  0.28837726  0.47322861  0.12915139     0.14800
H714        H  0.22167025  0.47543007  0.12663746     0.14800
H715        H  0.27986853  0.46722240  0.37220286     0.14800
H716        H  0.21311048  0.46700533  0.36933640     0.14800
H717        H  0.37594200  0.52301919  0.22191239     0.13100
H718        H  0.37321886  0.52328352  0.28842510     0.13100
H719        H  0.13109301  0.53068648  0.21377233     0.13100
H720        H  0.12872937  0.52879989  0.28025589     0.13100
H721        H  0.25261273  0.51340948  0.22182962     0.26300
H722        H  0.25029414  0.51275352  0.28008739     0.26300
N723        N  0.25091094  0.69976147  0.49750698    -0.36400
N724        N  0.20035496  0.75262852  0.49624456    -0.57000
N725        N  0.25281917  0.80257436  0.48891322    -0.36400
N726        N  0.30351138  0.74952382  0.49349460    -0.57000
C727        C  0.22294887  0.68347079  0.50821148     0.27200
C728        C  0.27796156  0.68172090  0.50782883     0.27200
C729        C  0.22613014  0.82176765  0.49835189     0.27200
C730        C  0.28102969  0.82029457  0.49596564     0.27200
C731        C  0.18143122  0.72541373  0.48876604     0.35800
C732        C  0.18222066  0.77974693  0.48660611     0.35800
C733        C  0.32215131  0.72132292  0.48894546     0.35800
C734        C  0.32299162  0.77561171  0.48365186     0.35800
C735        C  0.23233623  0.65485085  0.52592457    -0.21700
C736        C  0.26712728  0.65369916  0.52560076    -0.21700
C737        C  0.23749943  0.85203228  0.51149723    -0.21700
C738        C  0.27220148  0.85115611  0.50989662    -0.21700
C739        C  0.15158414  0.73525290  0.47336874    -0.22800
C740        C  0.15184560  0.76984241  0.47252775    -0.22800
C741        C  0.35355061  0.72951315  0.47582029    -0.22800
C742        C  0.35405514  0.76395005  0.47242601    -0.22800
C743        C  0.18947492  0.69248356  0.49938769    -0.18100
C744        C  0.31185767  0.68879920  0.49914688    -0.18100
C745        C  0.31436676  0.80980707  0.48863613    -0.18100
C746        C  0.19190703  0.81318515  0.49327334    -0.18100
H747        H  0.21585726  0.63639363  0.53736306     0.14800
H748        H  0.28264135  0.63420685  0.53672091     0.14800
H749        H  0.22240618  0.87266147  0.52112392     0.14800
H750        H  0.28899649  0.87098152  0.51816687     0.14800
H751        H  0.13131783  0.71925241  0.46457461     0.13100
H752        H  0.13194731  0.78587814  0.46293209     0.13100
H753        H  0.37414237  0.71257516  0.46982276     0.13100
H754        H  0.37517875  0.77879310  0.46359398     0.13100
H755        H  0.25132466  0.71961303  0.48040712     0.26300
H756        H  0.25183834  0.78018395  0.47523285     0.26300
C757        C  0.34158946  0.83557560  0.48919204    -0.05300
C758        C  0.33977778  0.86355056  0.46762289    -0.32700
C759        C  0.36346233  0.88959712  0.47004256     0.36500
C760        C  0.39001199  0.88728549  0.49353765    -0.05600
C761        C  0.39090060  0.86094459  0.01827383    -0.32600
C762        C  0.36673418  0.83531550  0.01716923     0.36400
H763        H  0.31949444  0.86547914  0.44940310     0.16800
O764        O  0.36105104  0.91667777  0.44874852    -0.60100
H765        H  0.41063738  0.85992650  0.03715827     0.16800
O766        O  0.36756565  0.81026987  0.04092615    -0.60200
H767        H  0.38674848  0.79554532  0.03439919     0.43800
H768        H  0.34457500  0.93212052  0.45959743     0.43800
C769        C  0.38740478  0.61052607  0.50415480    -0.05300
C770        C  0.35803868  0.60581342  0.48493177    -0.32700
C771        C  0.33346608  0.63108127  0.48300253     0.36500
C772        C  0.33746201  0.66127634  0.50134672    -0.05600
C773        C  0.36604799  0.66446661  0.02393075    -0.32600
C774        C  0.39115750  0.63958662  0.02498862     0.36400
H775        H  0.35469947  0.58295515  0.47035410     0.16800
O776        O  0.30586196  0.62622064  0.46269898    -0.60100
H777        H  0.36838023  0.68646392  0.03994691     0.16800
O778        O  0.41832508  0.64390359  0.04600429    -0.60200
H779        H  0.41310955  0.63042436  0.06636373     0.43800
H780        H  0.31084069  0.63881707  0.44173057     0.43800
C781        C  0.16540390  0.83987143  0.49564208    -0.05300
C782        C  0.16757806  0.86862501  0.47525250    -0.32700
C783        C  0.14302232  0.89397000  0.47711217     0.36500
C784        C  0.11503062  0.89037931  0.49889137    -0.05600
C785        C  0.11381324  0.86155636  0.01898513    -0.32600
C786        C  0.13907476  0.83679324  0.01773787     0.36400
H787        H  0.18846360  0.87140621  0.45780427     0.16800
O788        O  0.14650578  0.92198188  0.45723667    -0.60100
H789        H  0.09413547  0.85975167  0.03788623     0.16800
O790        O  0.13890404  0.81131834  0.04102926    -0.60200
H791        H  0.15247482  0.81989760  0.06020550     0.43800
H792        H  0.13169900  0.91797165  0.43748788     0.43800
C793        C  0.11208485  0.61579475  0.50119665    -0.05300
C794        C  0.10665456  0.64531249  0.01826787    -0.32700
C795        C  0.13179536  0.67027407  0.01886311     0.36500
C796        C  0.16240023  0.66638729  0.50063793    -0.05600
C797        C  0.16810410  0.63522800  0.48505472    -0.32600
C798        C  0.14395029  0.60977932  0.48637397     0.36400
H799        H  0.08302964  0.64991966  0.03128712     0.16800
O800        O  0.12660398  0.69912888  0.03730661    -0.60100
H801        H  0.19180910  0.63030570  0.47224977     0.16800
O802        O  0.15181312  0.57913909  0.47267933    -0.60200
H803        H  0.16408187  0.56687147  0.49067450     0.43800
H804        H  0.10735004  0.71084236  0.02642109     0.43800
C805        C  0.33562149  0.49701779  0.34123436    -0.05300
C806        C  0.35855639  0.97833691  0.34011829    -0.32700
C807        C  0.38361371  0.97687948  0.36498291     0.36500
C808        C  0.38444954  0.00111343  0.39090530    -0.05600
C809        C  0.35865952  0.51936302  0.39353871    -0.32600
C810        C  0.33337894  0.51933602  0.36882491     0.36400
H811        H  0.35813246  0.95939329  0.32042891     0.16800
O812        O  0.40663611  0.95109568  0.36432779    -0.60100
H813        H  0.35678727  0.53680646  0.41450417     0.16800
O814        O  0.30753183  0.54230206  0.37087608    -0.60200
H815        H  0.29207353  0.53350191  0.38844597     0.43800
H816        H  0.42309706  0.95747963  0.34661626     0.43800
C817        C  0.10848546  0.00197229  0.38508171    -0.05300
C818        C  0.10588030  0.97907445  0.35817663    -0.32700
C819        C  0.13095531  0.97758313  0.33314693     0.36500
C820        C  0.16091560  0.49948681  0.33485881    -0.05600
C821        C  0.16495914  0.52156648  0.36211352    -0.32600
C822        C  0.14069475  0.52335691  0.38758471     0.36400
H823        H  0.08491894  0.96158946  0.35713151     0.16800
O824        O  0.12907242  0.95338842  0.30848125    -0.60100
H825        H  0.18730500  0.53720458  0.36383866     0.16800
O826        O  0.14583883  0.54475422  0.41410253    -0.60200
H827        H  0.16213353  0.53279668  0.42883169     0.43800
H828        H  0.11006006  0.96029256  0.29376700     0.43800
C829        C  0.11472793  0.50106625  0.11118683    -0.05300
C830        C  0.14104886  0.52470464  0.10960197    -0.32700
C831        C  0.16610339  0.52554745  0.13456844     0.36500
C832        C  0.16589256  0.50157993  0.16064897    -0.05600
C833        C  0.13975653  0.97563255  0.16039088    -0.32600
C834        C  0.11465130  0.97501824  0.13568370     0.36400
H835        H  0.14164916  0.54310725  0.08948379     0.16800
O836        O  0.19034865  0.55015644  0.13365978    -0.60100
H837        H  0.13894797  0.95744243  0.18069400     0.16800
O838        O  0.08952761  0.95133733  0.13763556    -0.60200
H839        H  0.09641900  0.93318426  0.12185028     0.43800
H840        H  0.17999525  0.56985500  0.14511517     0.43800
C841        C  0.39134371  0.49835806  0.11446529    -0.06200
C842        C  0.39327208  0.98372834  0.14303252    -0.32700
C843        C  0.36840691  0.98403850  0.16816250     0.36500
C844        C  0.34201388  0.49849359  0.16584142    -0.05600
C845        C  0.34146141  0.52307964  0.14046245    -0.32600
C846        C  0.36583369  0.52309135  0.11485061     0.36400
H847        H  0.41383414  0.96576611  0.14474459     0.16800
O848        O  0.37024882  0.96128766  0.19409053    -0.60100
H849        H  0.32197419  0.54227035  0.14053901     0.16800
O850        O  0.36546577  0.54825093  0.09120649    -0.60200
H851        H  0.35013784  0.54016771  0.07319032     0.43800
H852        H  0.38957885  0.96868437  0.20815002     0.43800
C853        C  0.49554256  0.66161126  0.33864049    -0.05300
C854        C  0.01846161  0.66639910  0.36681532    -0.32700
C855        C  0.01887330  0.64261887  0.39275595     0.36500
C856        C  0.49789178  0.61233540  0.38937531    -0.05600
C857        C  0.47568467  0.60879588  0.36207603    -0.32600
C858        C  0.47400071  0.63345269  0.33711400     0.36400
H859        H  0.03523085  0.68789180  0.36817692     0.16800
O860        O  0.04020533  0.64712705  0.41962674    -0.60100
H861        H  0.45911830  0.58715333  0.36046661     0.16800
O862        O  0.45133970  0.62975937  0.31124100    -0.60200
H863        H  0.43191956  0.64435458  0.31734318     0.43800
H864        H  0.06272041  0.63959927  0.41159749     0.43800
C865        C  0.49198858  0.83617504  0.33882505    -0.05300
C866        C  0.01495881  0.83233283  0.36759626    -0.32700
C867        C  0.01547558  0.85672776  0.39311663     0.36500
C868        C  0.49631205  0.88666424  0.38920100    -0.05600
C869        C  0.47761050  0.89212170  0.35967347    -0.32600
C870        C  0.47433906  0.86685560  0.33526850     0.36400
H871        H  0.02974775  0.80957301  0.37069791     0.16800
O872        O  0.03444603  0.85094299  0.42144321    -0.60100
H873        H  0.46473811  0.91580604  0.35585427     0.16800
O874        O  0.45402279  0.87254134  0.30787486    -0.60200
H875        H  0.43145632  0.86399712  0.31451081     0.43800
H876        H  0.01992249  0.83700463  0.43624988     0.43800
C877        C  0.49365833  0.83591943  0.16268458    -0.05300
C878        C  0.01626111  0.83188416  0.13453387    -0.32700
C879        C  0.01690656  0.85596519  0.10875056     0.36500
C880        C  0.49638704  0.88553388  0.11137652    -0.05600
C881        C  0.47433640  0.88924637  0.13894738    -0.32600
C882        C  0.47260135  0.86459272  0.16427814     0.36400
H883        H  0.03249014  0.80997017  0.13259977     0.16800
O884        O  0.03836038  0.85133106  0.08197421    -0.60100
H885        H  0.45807367  0.91115759  0.14065461     0.16800
O886        O  0.44951892  0.86810143  0.18991332    -0.60200
H887        H  0.45728957  0.88766661  0.20338843     0.43800
H888        H  0.02523874  0.83811403  0.06529409     0.43800
C889        C  0.49800104  0.60887674  0.11506828    -0.05300
C890        C  0.47446257  0.60662508  0.14144779    -0.32700
C891        C  0.47209620  0.63226600  0.16569181     0.36500
C892        C  0.49388327  0.66030647  0.16403499    -0.05600
C893        C  0.01633553  0.66290028  0.13779647    -0.32600
C894        C  0.01829935  0.63765020  0.11331310     0.36400
H895        H  0.45750683  0.58528299  0.14288780     0.16800
O896        O  0.44877298  0.62955252  0.19114224    -0.60100
H897        H  0.03341038  0.68414611  0.13637957     0.16800
O898        O  0.04181873  0.64040086  0.08805899    -0.60200
H899        H  0.06200346  0.62818269  0.09640844     0.43800
H900        H  0.42798056  0.64027564  0.18227414     0.43800
N901        N  0.99733132  0.74940897  0.80279294    -0.36400
N902        N  0.99419000  0.69699728  0.75222124    -0.57000
N903        N  0.99449760  0.74800590  0.70001585    -0.36400
N904        N  0.99468323  0.80037774  0.75060685    -0.57000
C905        C  0.98896260  0.72239263  0.82164487     0.27200
C906        C  0.98910054  0.77716962  0.82077771     0.27200
C907        C  0.98539386  0.72035243  0.68232449     0.27200
C908        C  0.98593221  0.77524853  0.68142480     0.27200
C909        C  0.00280063  0.67862154  0.77948113     0.35800
C910        C  0.00089813  0.67766139  0.72501390     0.35800
C911        C  0.00433734  0.81894241  0.77745139     0.35800
C912        C  0.00303203  0.81828512  0.72292933     0.35800
C913        C  0.97500887  0.73307017  0.85194256    -0.21700
C914        C  0.97509936  0.76772344  0.85139147    -0.21700
C915        C  0.97076158  0.73008163  0.65211827    -0.21700
C916        C  0.97101260  0.76477286  0.65159361    -0.21700
C917        C  0.01535634  0.64752730  0.76957448    -0.22800
C918        C  0.01406306  0.64688171  0.73496567    -0.22800
C919        C  0.01929296  0.84860291  0.76685794    -0.22800
C920        C  0.01855827  0.84813987  0.73219411    -0.22800
C921        C  0.99618380  0.68861394  0.81301358    -0.18100
C922        C  0.99683160  0.81050884  0.81116553    -0.18100
C923        C  0.99399492  0.80898004  0.68976650    -0.18100
C924        C  0.99277570  0.68676562  0.69163016    -0.18100
H925        H  0.96614072  0.71755057  0.87251475     0.14800
H926        H  0.96639640  0.78406091  0.87147756     0.14800
H927        H  0.96139184  0.71386311  0.63227782     0.14800
H928        H  0.96183653  0.78044571  0.63127929     0.14800
H929        H  0.02392729  0.62722765  0.78560352     0.13100
H930        H  0.02154337  0.62601897  0.71901778     0.13100
H931        H  0.02923251  0.86862574  0.78248313     0.13100
H932        H  0.02784752  0.86773942  0.71571674     0.13100
H933        H  0.01174742  0.74895498  0.78083573     0.26300
H934        H  0.00960843  0.74816217  0.72145770     0.26300
O935        O  0.49771635  0.59434901  0.55675911    -0.86300
O936        O  0.49976287  0.90302732  0.55453555    -0.86500
O937        O  0.44780536  0.49849276  0.59686094    -0.88100
O938        O  0.05894474  0.49758914  0.59446289    -0.86900
O939        O  0.09634680  0.00081163  0.55386293    -0.86500
O940        O  0.40614356  0.00088293  0.55791007    -0.87900
O941        O  0.49874669  0.94340548  0.59596697    -0.86300
O942        O  0.49808465  0.55293107  0.59714214    -0.85900
Zr943      Zr  0.50146497  0.99912191  0.56892899     2.84300
O944        O  0.03534224  0.96613554  0.53430911    -1.07900
O945        O  0.46758533  0.53292187  0.53521431    -1.08600
C946        C  0.49690049  0.58402669  0.58759963     1.06800
C947        C  0.49856411  0.91240109  0.58570703     1.06700
C948        C  0.41663202  0.49986172  0.58734567     1.09700
C949        C  0.08988263  0.49934350  0.58404857     1.07500
H950        H  0.45263153  0.95108036  0.54903371     0.33100
O951        O  0.46671697  0.96530381  0.53522048    -1.28900
H952        H  0.04978868  0.54904035  0.54950173     0.32700
O953        O  0.03591141  0.53501501  0.53515821    -1.30500
O954        O  0.50096370  0.90488636  0.94466806    -0.86300
O955        O  0.49994770  0.59667308  0.94871315    -0.87800
O956        O  0.40479861  0.94561879  0.99873718    -0.86400
O957        O  0.09712621  0.94608143  0.99672884    -0.86400
O958        O  0.09581877  0.55705720  0.00057460    -0.86100
O959        O  0.40529110  0.55336336  0.00276560    -0.85900
O960        O  0.44301704  0.00003794  0.90569887    -0.86300
O961        O  0.05172044  0.99999799  0.90205611    -0.85800
O962        O  0.40302913  0.00260113  0.94758881    -0.86800
O963        O  0.09386915  0.00305703  0.94172980    -0.86000
O964        O  0.44611057  0.90482317  0.99854609    -0.86400
O965        O  0.44594719  0.59446835  0.00513231    -0.86100
O966        O  0.05441828  0.59738094  0.00306626    -0.85800
O967        O  0.05671059  0.90477300  0.00053485    -0.86200
O968        O  0.49662187  0.94581419  0.90409958    -0.86500
O969        O  0.49753715  0.55675353  0.90679733    -0.87800
Zr970      Zr  0.50110176  0.93209456  0.99990139     2.83100
Zr971      Zr  0.50118385  0.56734680  0.00251916     2.83500
Zr972      Zr  0.43237558  0.00046661  0.00176233     2.84100
Zr973      Zr  0.06874505  0.00064936  0.99823611     2.83400
Zr974      Zr  0.49837241  0.00065257  0.93243112     2.84200
O975        O  0.03352910  0.53551783  0.96641393    -1.08400
O976        O  0.46570415  0.96621099  0.96707680    -1.07900
C977        C  0.49872033  0.91476868  0.91372005     1.06800
C978        C  0.49821255  0.58748558  0.91751415     1.09400
C979        C  0.41502069  0.91469880  0.99780642     1.06900
C980        C  0.08766309  0.91498748  0.99829644     1.07300
C981        C  0.08571349  0.58793608  0.00191498     1.06900
C982        C  0.41493807  0.58440825  0.00437653     1.06400
C983        C  0.41220249  0.00148504  0.91632076     1.06900
C984        C  0.08298347  0.00184395  0.91097208     1.06400
H985        H  0.45203534  0.54848066  0.95459612     0.33100
O986        O  0.46660278  0.53419991  0.96789048    -1.29500
H987        H  0.04782197  0.95246909  0.95040257     0.33100
O988        O  0.03399466  0.96634947  0.96497138    -1.30900
N989        N  0.25313614  0.50232631  0.69960354    -0.36400
N990        N  0.30280682  0.50324246  0.75278580    -0.57000
N991        N  0.24876493  0.50551143  0.80237728    -0.36400
N992        N  0.19907236  0.50182086  0.74900504    -0.57000
C993        C  0.28139577  0.49336607  0.68263063     0.27200
C994        C  0.22645413  0.49256305  0.68075344     0.27200
C995        C  0.27557011  0.49851921  0.82227368     0.27200
C996        C  0.22054935  0.49789198  0.82002436     0.27200
C997        C  0.32302235  0.50965235  0.72605560     0.35800
C998        C  0.32066719  0.51129674  0.78064395     0.35800
C999        C  0.18147417  0.50892625  0.72077620     0.35800
C1000       C  0.17896988  0.51029086  0.77520122     0.35800
C1001       C  0.27260792  0.47738604  0.65280048    -0.21700
C1002       C  0.23784021  0.47677197  0.65166859    -0.21700
C1003       C  0.26424893  0.48615545  0.85296844    -0.21700
C1004       C  0.22946456  0.48583556  0.85156885    -0.21700
C1005       C  0.35384865  0.52201174  0.73693852    -0.22800
C1006       C  0.35240097  0.52295999  0.77157708    -0.22800
C1007       C  0.15012414  0.52221274  0.72904916    -0.22800
C1008       C  0.14848029  0.52294141  0.76364730    -0.22800
C1009       C  0.31466682  0.50178661  0.69230191    -0.18100
C1010       C  0.19239678  0.50051187  0.68793974    -0.18100
C1011       C  0.18714883  0.50442125  0.80925673    -0.18100
C1012       C  0.30971141  0.50527772  0.81406005    -0.18100
H1013       H  0.28949218  0.46765450  0.63362525     0.14800
H1014       H  0.22268068  0.46656031  0.63140752     0.14800
H1015       H  0.27942336  0.47872017  0.87438077     0.14800
H1016       H  0.21265358  0.47817559  0.87167315     0.14800
H1017       H  0.37531887  0.52901183  0.72158012     0.13100
H1018       H  0.37255345  0.53087221  0.78820430     0.13100
H1019       H  0.13034341  0.53007699  0.71196927     0.13100
H1020       H  0.12721565  0.53147943  0.77857838     0.13100
H1021       H  0.25210520  0.51815116  0.72052889     0.26300
H1022       H  0.24956892  0.51863297  0.77973612     0.26300
N1023       N  0.25121787  0.69910529  0.99850256    -0.36400
N1024       N  0.20028578  0.75159073  0.99565080    -0.57000
N1025       N  0.25263193  0.80211327  0.98990342    -0.36400
N1026       N  0.30367480  0.74955956  0.99639704    -0.57000
C1027       C  0.22328706  0.68243229  0.00883491     0.27200
C1028       C  0.27840764  0.68101268  0.00846070     0.27200
C1029       C  0.22534629  0.82120944  0.99758265     0.27200
C1030       C  0.28029070  0.82022258  0.99809337     0.27200
C1031       C  0.18131726  0.72411254  0.98919356     0.35800
C1032       C  0.18215383  0.77841633  0.98514834     0.35800
C1033       C  0.32256674  0.72158732  0.99140082     0.35800
C1034       C  0.32318016  0.77599163  0.98748182     0.35800
C1035       C  0.23290298  0.65349281  0.02591741    -0.21700
C1036       C  0.26772080  0.65248540  0.02546794    -0.21700
C1037       C  0.23575255  0.85185553  0.01066662    -0.21700
C1038       C  0.27050096  0.85124916  0.01097832    -0.21700
C1039       C  0.15136730  0.73348349  0.97368773    -0.22800
C1040       C  0.15173665  0.76802955  0.97150103    -0.22800
C1041       C  0.35412839  0.73028488  0.97904029    -0.22800
C1042       C  0.35450427  0.76479235  0.97655732    -0.22800
C1043       C  0.18963611  0.69132945  0.00026147    -0.18100
C1044       C  0.31237621  0.68869660  0.00042193    -0.18100
C1045       C  0.31401811  0.81007837  0.99227999    -0.18100
C1046       C  0.19148868  0.81210269  0.99125688    -0.18100
H1047       H  0.21655444  0.63470957  0.03700369     0.14800
H1048       H  0.28336568  0.63286093  0.03616497     0.14800
H1049       H  0.21998845  0.87254257  0.01901778     0.14800
H1050       H  0.28669238  0.87140449  0.01965021     0.14800
H1051       H  0.13102400  0.71722700  0.96556769     0.13100
H1052       H  0.13178053  0.78375291  0.96150979     0.13100
H1053       H  0.37487499  0.71359218  0.97288184     0.13100
H1054       H  0.37561068  0.77995722  0.96825651     0.13100
H1055       H  0.25164821  0.71938207  0.98192208     0.26300
H1056       H  0.25248649  0.77949951  0.97656994     0.26300
C1057       C  0.34084270  0.83629257  0.99288751    -0.05300
C1058       C  0.33941259  0.86338509  0.97018894    -0.32700
C1059       C  0.36310041  0.88948967  0.97189459     0.36500
C1060       C  0.38916696  0.88821057  0.99595471    -0.05600
C1061       C  0.39220094  0.85904749  0.51454654    -0.32600
C1062       C  0.36794635  0.83356542  0.51289658     0.36400
H1063       H  0.31958360  0.86444927  0.95141152     0.16800
O1064       O  0.36137000  0.91545054  0.94919012    -0.60100
H1065       H  0.41222231  0.85724988  0.53306859     0.16800
O1066       O  0.36896085  0.80777830  0.53584671    -0.60200
H1067       H  0.38867187  0.79376862  0.52930049     0.43800
H1068       H  0.34446535  0.93133092  0.95864895     0.43800
C1069       C  0.38836923  0.61061203  0.00457590    -0.05300
C1070       C  0.36034310  0.60725823  0.98317983    -0.32700
C1071       C  0.33581158  0.63262730  0.98136584     0.36500
C1072       C  0.33829930  0.66138471  0.00209274    -0.05600
C1073       C  0.36626689  0.66543509  0.52155408    -0.32600
C1074       C  0.39126896  0.64052777  0.52281129     0.36400
H1075       H  0.35806368  0.58540937  0.96694278     0.16800
O1076       O  0.30981577  0.62939256  0.95876882    -0.60100
H1077       H  0.36952952  0.68831130  0.53610167     0.16800
O1078       O  0.41938599  0.64581509  0.54230502    -0.60200
H1079       H  0.41407562  0.63547853  0.56441518     0.43800
H1080       H  0.31651919  0.64322295  0.93908578     0.43800
C1081       C  0.16468372  0.83845016  0.99309907    -0.05300
C1082       C  0.16541075  0.86593840  0.97094901    -0.32700
C1083       C  0.14078636  0.89125283  0.97286367     0.36500
C1084       C  0.11446078  0.88900190  0.99674029    -0.05600
C1085       C  0.11300323  0.86176652  0.51952185    -0.32600
C1086       C  0.13826431  0.83701409  0.51854143     0.36400
H1087       H  0.18523160  0.86778108  0.95218764     0.16800
O1088       O  0.14250425  0.91795151  0.95105231    -0.60100
H1089       H  0.09210256  0.85892874  0.53693172     0.16800
O1090       O  0.13634339  0.81023356  0.54023863    -0.60200
H1091       H  0.15154450  0.81606647  0.55922322     0.43800
H1092       H  0.12800729  0.91159344  0.93169246     0.43800
C1093       C  0.11228177  0.61433799  0.00197999    -0.05300
C1094       C  0.10608857  0.64716066  0.51654195    -0.32700
C1095       C  0.13125479  0.67205380  0.51713352     0.36500
C1096       C  0.16265791  0.66501229  0.00169067    -0.05600
C1097       C  0.16804359  0.63416937  0.98529417    -0.32600
C1098       C  0.14380820  0.60868680  0.98626193     0.36400
H1099       H  0.08222101  0.65209229  0.52899463     0.16800
O1100       O  0.12586736  0.70118859  0.53507269    -0.60100
H1101       H  0.19147877  0.62961931  0.97188149     0.16800
O1102       O  0.15105541  0.57854759  0.97100980    -0.60200
H1103       H  0.16481196  0.56591091  0.98762262     0.43800
H1104       H  0.10637465  0.71248004  0.52416007     0.43800
C1105       C  0.33561458  0.50395805  0.84120862    -0.05300
C1106       C  0.35948610  0.97963961  0.83968360    -0.32700
C1107       C  0.38513388  0.97866342  0.86391217     0.36500
C1108       C  0.38532333  0.00212594  0.89054804    -0.05600
C1109       C  0.36076733  0.52559991  0.89283664    -0.32600
C1110       C  0.33551594  0.52717905  0.86810181     0.36400
H1111       H  0.35947029  0.96117677  0.81953341     0.16800
O1112       O  0.40942660  0.95412707  0.86186130    -0.60100
H1113       H  0.36065977  0.54381325  0.91321077     0.16800
O1114       O  0.31168946  0.55226130  0.86957305    -0.60200
H1115       H  0.29603656  0.54563084  0.88792024     0.43800
H1116       H  0.42553832  0.96222386  0.84452414     0.43800
C1117       C  0.10833775  0.00236155  0.88368464    -0.05300
C1118       C  0.10593522  0.97947903  0.85674915    -0.32700
C1119       C  0.13082981  0.97858532  0.83153023     0.36500
C1120       C  0.15980902  0.50580439  0.83488992    -0.05600
C1121       C  0.15965854  0.53188485  0.85876350    -0.32600
C1122       C  0.13463391  0.53339982  0.88372077     0.36400
H1123       H  0.08527992  0.96162942  0.85579471     0.16800
O1124       O  0.12900040  0.95474394  0.80651157    -0.60100
H1125       H  0.17908226  0.55106088  0.85803702     0.16800
O1126       O  0.13486480  0.55933390  0.90654746    -0.60200
H1127       H  0.12811263  0.57963926  0.89368212     0.43800
H1128       H  0.10988449  0.96176809  0.79198045     0.43800
C1129       C  0.11676977  0.49837071  0.60987412    -0.05300
C1130       C  0.14547872  0.51882763  0.60635371    -0.32700
C1131       C  0.17026989  0.51969216  0.63151442     0.36500
C1132       C  0.16703595  0.49921894  0.66028704    -0.05600
C1133       C  0.14071414  0.97508148  0.66043768    -0.32600
C1134       C  0.11475337  0.97453448  0.63656188     0.36400
H1135       H  0.14817564  0.53500292  0.58455617     0.16800
O1136       O  0.19732889  0.54095378  0.62804522    -0.60100
H1137       H  0.14070563  0.95671972  0.68060357     0.16800
O1138       O  0.09006411  0.95045125  0.63886742    -0.60200
H1139       H  0.09837445  0.93129584  0.62507742     0.43800
H1140       H  0.18915109  0.56321466  0.63595776     0.43800
C1141       C  0.39065231  0.50084857  0.61412321    -0.06200
C1142       C  0.39354557  0.97891622  0.64294364    -0.32700
C1143       C  0.36901582  0.97890015  0.66842140     0.36500
C1144       C  0.34156126  0.50177537  0.66591905    -0.05600
C1145       C  0.33939559  0.52434726  0.63875874    -0.32600
C1146       C  0.36360175  0.52392715  0.61291624     0.36400
H1147       H  0.41429802  0.96113888  0.64424261     0.16800
O1148       O  0.37140044  0.95614794  0.69430682    -0.60100
H1149       H  0.31880065  0.54231425  0.63763321     0.16800
O1150       O  0.36145542  0.54712498  0.58741727    -0.60200
H1151       H  0.34716471  0.53642229  0.56991988     0.43800
H1152       H  0.39075499  0.96379731  0.70819659     0.43800
C1153       C  0.49532382  0.66272040  0.84001063    -0.05300
C1154       C  0.01675612  0.66691188  0.86844498    -0.32700
C1155       C  0.01667014  0.64314423  0.89438093     0.36500
C1156       C  0.49669341  0.61412173  0.89175639    -0.05600
C1157       C  0.47577369  0.60974146  0.86355875    -0.32600
C1158       C  0.47443434  0.63407304  0.83820486     0.36400
H1159       H  0.03308625  0.68868849  0.87044538     0.16800
O1160       O  0.03695558  0.64811280  0.92196408    -0.60100
H1161       H  0.45997484  0.58758025  0.86143424     0.16800
O1162       O  0.45266256  0.62960009  0.81171082    -0.60200
H1163       H  0.43144095  0.64096399  0.81865683     0.43800
H1164       H  0.05911140  0.63817685  0.91576590     0.43800
C1165       C  0.49708939  0.83755682  0.83711216    -0.05300
C1166       C  0.01815401  0.83425514  0.86554725    -0.32700
C1167       C  0.01839725  0.85890365  0.89080300     0.36500
C1168       C  0.49864711  0.88830942  0.88727305    -0.05600
C1169       C  0.47743546  0.89145103  0.85909199    -0.32600
C1170       C  0.47606368  0.86610599  0.83449399     0.36400
H1171       H  0.03444944  0.81245599  0.86801458     0.16800
O1172       O  0.03955411  0.85497741  0.91787470    -0.60100
H1173       H  0.46131083  0.91326030  0.85653157     0.16800
O1174       O  0.45398860  0.86937693  0.80806760    -0.60200
H1175       H  0.43356505  0.85666242  0.81491185     0.43800
H1176       H  0.02714159  0.84020681  0.93374164     0.43800
C1177       C  0.49432929  0.83524152  0.66227758    -0.05300
C1178       C  0.01345955  0.83096135  0.63386870    -0.32700
C1179       C  0.01410446  0.85541488  0.60848160     0.36500
C1180       C  0.49673379  0.88544968  0.61159730    -0.05600
C1181       C  0.47603722  0.88957570  0.64012881    -0.32600
C1182       C  0.47446439  0.86463666  0.66515612     0.36400
H1183       H  0.02886517  0.80855558  0.63105677     0.16800
O1184       O  0.03432973  0.85028555  0.58085940    -0.60100
H1185       H  0.46071324  0.91204345  0.64285108     0.16800
O1186       O  0.45271190  0.86865749  0.69184249    -0.60200
H1187       H  0.46276419  0.88658427  0.70606169     0.43800
H1188       H  0.02027299  0.83723874  0.56481515     0.43800
C1189       C  0.49512125  0.61020491  0.61397083    -0.05300
C1190       C  0.47200084  0.60738104  0.64069928    -0.32700
C1191       C  0.47002718  0.63251040  0.66554124     0.36500
C1192       C  0.49201986  0.66037683  0.66432719    -0.05600
C1193       C  0.01575341  0.66338912  0.63804572    -0.32600
C1194       C  0.01736540  0.63871303  0.61298348     0.36400
H1195       H  0.45510686  0.58597904  0.64198446     0.16800
O1196       O  0.44674001  0.62959041  0.69099733    -0.60100
H1197       H  0.03252076  0.68487687  0.63662950     0.16800
O1198       O  0.04003137  0.64235870  0.58707155    -0.60200
H1199       H  0.06163510  0.63318432  0.59577341     0.43800
H1200       H  0.42594489  0.64040962  0.68224198     0.43800
N1201       N  0.50162564  0.25046118  0.30195463    -0.36400
N1202       N  0.49918677  0.19814013  0.25159461    -0.57000
N1203       N  0.49923715  0.24899433  0.19914619    -0.36400
N1204       N  0.49895234  0.30153580  0.24932649    -0.57000
C1205       C  0.49344432  0.22336370  0.32093105     0.27200
C1206       C  0.49299298  0.27822190  0.31976509     0.27200
C1207       C  0.48961750  0.22125863  0.18184076     0.27200
C1208       C  0.49051877  0.27605516  0.18040722     0.27200
C1209       C  0.50769440  0.17972644  0.27886451     0.35800
C1210       C  0.50603010  0.17886436  0.22438466     0.35800
C1211       C  0.50611982  0.32107757  0.27625606     0.35800
C1212       C  0.50542720  0.32026852  0.22166467     0.35800
C1213       C  0.47929260  0.23403844  0.35110562    -0.21700
C1214       C  0.47906542  0.26871069  0.35039725    -0.21700
C1215       C  0.47430378  0.23082938  0.15191447    -0.21700
C1216       C  0.47501612  0.26547563  0.15094517    -0.21700
C1217       C  0.52046444  0.14873120  0.26897603    -0.22800
C1218       C  0.51943382  0.14819074  0.23435093    -0.22800
C1219       C  0.51728183  0.35241590  0.26569091    -0.22800
C1220       C  0.51686922  0.35188533  0.23102209    -0.22800
C1221       C  0.50054066  0.18947924  0.31233719    -0.18100
C1222       C  0.49984924  0.31176420  0.31004817    -0.18100
C1223       C  0.49838827  0.30981339  0.18834531    -0.18100
C1224       C  0.49727579  0.18771756  0.19108345    -0.18100
H1225       H  0.47039539  0.21849876  0.37164617     0.14800
H1226       H  0.47001480  0.28507040  0.37031703     0.14800
H1227       H  0.46425352  0.21451854  0.13249394     0.14800
H1228       H  0.46552880  0.28109534  0.13072345     0.14800
H1229       H  0.52889944  0.12839607  0.28503194     0.13100
H1230       H  0.52699956  0.12735690  0.21841027     0.13100
H1231       H  0.52443579  0.37360235  0.28130927     0.13100
H1232       H  0.52361817  0.37256161  0.21462767     0.13100
H1233       H  0.51597818  0.25016649  0.27995429     0.26300
H1234       H  0.51473902  0.24930939  0.22032323     0.26300
O1235       O  0.00026961  0.09417323  0.05714690    -0.86300
O1236       O  0.00388716  0.40204066  0.05209860    -0.86500
O1237       O  0.94840213  0.00056950  0.09801652    -0.88100
O1238       O  0.55765717  0.99739308  0.09421366    -0.86900
O1239       O  0.59883872  0.49779401  0.05315837    -0.86500
O1240       O  0.90608809  0.49852453  0.05688992    -0.87900
O1241       O  0.00146621  0.44188666  0.09406834    -0.86300
O1242       O  0.00003002  0.05282735  0.09756175    -0.85900
Zr1243     Zr  0.00197437  0.49799874  0.06847879     2.84300
O1244       O  0.53762759  0.46535760  0.03269481    -1.07900
O1245       O  0.96759114  0.03328844  0.03560028    -1.08600
C1246       C  0.99976098  0.08393911  0.08804457     1.06800
C1247       C  0.00236715  0.41108683  0.08338208     1.06700
C1248       C  0.91731270  0.00311199  0.08866613     1.09700
C1249       C  0.58845828  0.99919168  0.08355020     1.07500
H1250       H  0.95428665  0.44962821  0.04747428     0.33100
O1251       O  0.96808215  0.46437663  0.03386559    -1.28900
H1252       H  0.54968225  0.04746344  0.04872180     0.32700
O1253       O  0.53544261  0.03360837  0.03465085    -1.30500
O1254       O  0.00436629  0.40653306  0.44313926    -0.86300
O1255       O  0.99961648  0.09618803  0.44748294    -0.87800
O1256       O  0.90785611  0.44458996  0.49685476    -0.86400
O1257       O  0.60017153  0.44927300  0.49560187    -0.86400
O1258       O  0.59609826  0.05632390  0.49906382    -0.86100
O1259       O  0.90354029  0.05417103  0.50268810    -0.85900
O1260       O  0.94460665  0.50110067  0.40608579    -0.86300
O1261       O  0.55440295  0.50344538  0.40314772    -0.85800
O1262       O  0.90433027  0.50287722  0.44779497    -0.86800
O1263       O  0.59602842  0.50810075  0.44326633    -0.86000
O1264       O  0.94986743  0.40449749  0.49657215    -0.86400
O1265       O  0.94467752  0.09487376  0.50388008    -0.86100
O1266       O  0.55488315  0.09680687  0.50150084    -0.85800
O1267       O  0.56052295  0.40724938  0.49913313    -0.86200
O1268       O  0.99909831  0.44764509  0.40288038    -0.86500
O1269       O  0.99632836  0.05575155  0.40611171    -0.87800
Zr1270     Zr  0.00407041  0.43310897  0.49862593     2.83100
Zr1271     Zr  0.99981261  0.06783826  0.50177014     2.83500
Zr1272     Zr  0.93387302  0.49985829  0.50152732     2.84100
Zr1273     Zr  0.56969436  0.50248724  0.49869544     2.83400
Zr1274     Zr  0.00022686  0.50192399  0.43233313     2.84200
O1275       O  0.53311002  0.03450467  0.46540748    -1.08400
O1276       O  0.96789867  0.46671680  0.46633729    -1.07900
C1277       C  0.00175882  0.41658149  0.41229695     1.06800
C1278       C  0.99792214  0.08666574  0.41638664     1.09400
C1279       C  0.91866305  0.41392572  0.49560674     1.06900
C1280       C  0.59128562  0.41803786  0.49694860     1.07300
C1281       C  0.58618691  0.08736548  0.50022391     1.06900
C1282       C  0.91361507  0.08503648  0.50368220     1.06400
C1283       C  0.91375316  0.50231904  0.41663656     1.06900
C1284       C  0.58543583  0.50677219  0.41249949     1.06400
H1285       H  0.95035637  0.04858840  0.45408950     0.33100
O1286       O  0.96477532  0.03440713  0.46771106    -1.29500
H1287       H  0.55094128  0.45409510  0.44985265     0.33100
O1288       O  0.53661250  0.46742708  0.46448119    -1.30900
N1289       N  0.75181753  0.00426707  0.19788891    -0.36400
N1290       N  0.80141072  0.00428910  0.25142832    -0.57000
N1291       N  0.74739590  0.00278275  0.30078104    -0.36400
N1292       N  0.69774898  0.99950195  0.24732317    -0.57000
C1293       C  0.78030759  0.99719993  0.18042558     0.27200
C1294       C  0.72538565  0.99524034  0.17836429     0.27200
C1295       C  0.77448316  0.99599431  0.32042401     0.27200
C1296       C  0.71948076  0.99321134  0.31797958     0.27200
C1297       C  0.82128649  0.01250274  0.22499628     0.35800
C1298       C  0.81902884  0.01202086  0.27953630     0.35800
C1299       C  0.67998655  0.00754083  0.21947756     0.35800
C1300       C  0.67742165  0.00629324  0.27381915     0.35800
C1301       C  0.77187124  0.98341201  0.14938534    -0.21700
C1302       C  0.73712303  0.98217279  0.14809377    -0.21700
C1303       C  0.76369062  0.98184364  0.35048076    -0.21700
C1304       C  0.72895517  0.98006862  0.34893555    -0.21700
C1305       C  0.85158532  0.02576892  0.23632710    -0.22800
C1306       C  0.85021529  0.02530776  0.27095027    -0.22800
C1307       C  0.64828961  0.01960454  0.22825914    -0.22800
C1308       C  0.64670179  0.01891953  0.26281020    -0.22800
C1309       C  0.81342949  0.00528072  0.19102000    -0.18100
C1310       C  0.69112805  0.00124912  0.18631508    -0.18100
C1311       C  0.68574127  0.99908740  0.30756956    -0.18100
C1312       C  0.80834908  0.00442380  0.31265777    -0.18100
H1313       H  0.78893129  0.97552910  0.12953293     0.14800
H1314       H  0.72220468  0.97323688  0.12706010     0.14800
H1315       H  0.77918019  0.97412425  0.37156569     0.14800
H1316       H  0.71251190  0.97076805  0.36863074     0.14800
H1317       H  0.87268648  0.03429209  0.22123326     0.13100
H1318       H  0.87003402  0.03342222  0.28787207     0.13100
H1319       H  0.62833551  0.02776652  0.21151586     0.13100
H1320       H  0.62530602  0.02655462  0.27803291     0.13100
H1321       H  0.75035563  0.01829956  0.22001585     0.26300
H1322       H  0.74766493  0.01702604  0.27881471     0.26300
N1323       N  0.75148454  0.20047648  0.49754087    -0.36400
N1324       N  0.70111864  0.25296355  0.49515925    -0.57000
N1325       N  0.75478479  0.30333629  0.48884291    -0.36400
N1326       N  0.80502626  0.25081019  0.49542921    -0.57000
C1327       C  0.72335825  0.18367977  0.50733295     0.27200
C1328       C  0.77852383  0.18248677  0.50803991     0.27200
C1329       C  0.72770608  0.32294652  0.49583113     0.27200
C1330       C  0.78266872  0.32181956  0.49548600     0.27200
C1331       C  0.68196181  0.22573875  0.48777978     0.35800
C1332       C  0.68365824  0.28021093  0.48453228     0.35800
C1333       C  0.82376649  0.22260119  0.49176534     0.35800
C1334       C  0.82543065  0.27686504  0.48748387     0.35800
C1335       C  0.73273907  0.15487671  0.52474674    -0.21700
C1336       C  0.76755845  0.15400767  0.52497269    -0.21700
C1337       C  0.73852558  0.35430356  0.50682614    -0.21700
C1338       C  0.77323011  0.35365124  0.50640282    -0.21700
C1339       C  0.65260546  0.23573547  0.47161434    -0.22800
C1340       C  0.65342368  0.27034350  0.47007944    -0.22800
C1341       C  0.85620464  0.23080784  0.48134774    -0.22800
C1342       C  0.85728731  0.26523751  0.47881018    -0.22800
C1343       C  0.68978936  0.19253490  0.49819928    -0.18100
C1344       C  0.81266665  0.18992651  0.50041303    -0.18100
C1345       C  0.81636907  0.31108143  0.49073738    -0.18100
C1346       C  0.69365183  0.31387950  0.49028863    -0.18100
H1347       H  0.71626017  0.13611866  0.53567661     0.14800
H1348       H  0.78305230  0.13446571  0.53603644     0.14800
H1349       H  0.72309097  0.37559705  0.51417919     0.14800
H1350       H  0.78962685  0.37426439  0.51345916     0.14800
H1351       H  0.63245678  0.21982094  0.46240510     0.13100
H1352       H  0.63406333  0.28643822  0.45953593     0.13100
H1353       H  0.87711207  0.21387537  0.47656110     0.13100
H1354       H  0.87912047  0.28004156  0.47181010     0.13100
H1355       H  0.75226183  0.22070962  0.48092353     0.26300
H1356       H  0.75421552  0.27995669  0.47699337     0.26300
C1357       C  0.84354336  0.33684703  0.49131056    -0.05300
C1358       C  0.84509403  0.36130918  0.46583606    -0.32700
C1359       C  0.86960635  0.38666102  0.46690254     0.36500
C1360       C  0.89315838  0.38734550  0.49341468    -0.05600
C1361       C  0.89329179  0.35910493  0.01529875    -0.32600
C1362       C  0.86834014  0.33422240  0.01426194     0.36400
H1363       H  0.82708633  0.36082395  0.44529373     0.16800
O1364       O  0.87114518  0.40992585  0.44141837    -0.60100
H1365       H  0.91318144  0.35740042  0.03397493     0.16800
O1366       O  0.86882511  0.30882142  0.03766074    -0.60200
H1367       H  0.88765777  0.29379524  0.03079719     0.43800
H1368       H  0.85526366  0.42807305  0.44814058     0.43800
C1369       C  0.88747150  0.11132116  0.50399681    -0.05300
C1370       C  0.85978615  0.10857126  0.48216092    -0.32700
C1371       C  0.83565684  0.13425898  0.48045118     0.36500
C1372       C  0.83803319  0.16230264  0.50208573    -0.05600
C1373       C  0.86791631  0.16691922  0.02101710    -0.32600
C1374       C  0.89288648  0.14203036  0.02193072     0.36400
H1375       H  0.85760338  0.08710966  0.46539251     0.16800
O1376       O  0.81024402  0.13219000  0.45706073    -0.60100
H1377       H  0.87131152  0.18976834  0.03558201     0.16800
O1378       O  0.92140304  0.14740072  0.04081171    -0.60200
H1379       H  0.91693376  0.13636226  0.06275887     0.43800
H1380       H  0.82092971  0.13815047  0.43524642     0.43800
C1381       C  0.66730031  0.34069759  0.49187131    -0.05300
C1382       C  0.66878654  0.36836992  0.46991477    -0.32700
C1383       C  0.64500847  0.39447944  0.47220471     0.36500
C1384       C  0.61834456  0.39238431  0.49571146    -0.05600
C1385       C  0.61614301  0.36167290  0.01430593    -0.32600
C1386       C  0.64048985  0.33613931  0.01199760     0.36400
H1387       H  0.68875077  0.36990670  0.45127338     0.16800
O1388       O  0.64800748  0.42183491  0.45135875    -0.60100
H1389       H  0.59691047  0.36012988  0.03367126     0.16800
O1390       O  0.64006909  0.31035138  0.03494716    -0.60200
H1391       H  0.65635140  0.31709145  0.05269600     0.43800
H1392       H  0.63713792  0.41503640  0.42989714     0.43800
C1393       C  0.61271345  0.11418959  0.49997732    -0.05300
C1394       C  0.60721225  0.14524239  0.01386006    -0.32700
C1395       C  0.63224266  0.17034823  0.01417466     0.36500
C1396       C  0.66257302  0.16601393  0.49894603    -0.05600
C1397       C  0.66866053  0.13457430  0.48383936    -0.32600
C1398       C  0.64466589  0.10872030  0.48511142     0.36400
H1399       H  0.58275132  0.15086404  0.02477927     0.16800
O1400       O  0.62578276  0.20043213  0.03007145    -0.60100
H1401       H  0.69249797  0.12980377  0.47123701     0.16800
O1402       O  0.65262212  0.07833502  0.47094920    -0.60200
H1403       H  0.66529859  0.06596552  0.48857759     0.43800
H1404       H  0.60681612  0.21089937  0.01754260     0.43800
C1405       C  0.83421015  0.00328086  0.33993282    -0.05300
C1406       C  0.86090951  0.48004338  0.34070561    -0.32700
C1407       C  0.88584049  0.47853688  0.36554953     0.36500
C1408       C  0.88719116  0.50333147  0.39080539    -0.05600
C1409       C  0.85895790  0.02521403  0.39171919    -0.32600
C1410       C  0.83403985  0.02676118  0.36657947     0.36400
H1411       H  0.85976981  0.46040568  0.32173923     0.16800
O1412       O  0.90822097  0.45218740  0.36558077    -0.60100
H1413       H  0.85880619  0.04374838  0.41179716     0.16800
O1414       O  0.81031719  0.05194887  0.36755848    -0.60200
H1415       H  0.79333093  0.04449721  0.38433626     0.43800
H1416       H  0.92359229  0.45659879  0.34634715     0.43800
C1417       C  0.61100367  0.50725525  0.38572513    -0.05300
C1418       C  0.61570837  0.47812397  0.36631825    -0.32700
C1419       C  0.64064342  0.47692511  0.34139384     0.36500
C1420       C  0.65847432  0.99962985  0.33347142    -0.05600
C1421       C  0.66096307  0.02245133  0.36026780    -0.32600
C1422       C  0.63656799  0.02322603  0.38570679     0.36400
H1423       H  0.60032074  0.45605314  0.37091335     0.16800
O1424       O  0.64527278  0.44785007  0.32325985    -0.60100
H1425       H  0.68226974  0.03948994  0.36171951     0.16800
O1426       O  0.64028584  0.04544476  0.41176831    -0.60200
H1427       H  0.65896796  0.03594566  0.42542241     0.43800
H1428       H  0.62899801  0.44929615  0.30432900     0.43800
C1429       C  0.61519993  0.99900527  0.10919108    -0.05300
C1430       C  0.64171378  0.02234875  0.10724840    -0.32700
C1431       C  0.66662029  0.02330689  0.13220080     0.36500
C1432       C  0.66561027  0.00015788  0.15901138    -0.05600
C1433       C  0.63739690  0.47329337  0.16397747    -0.32600
C1434       C  0.61219662  0.47353785  0.13926964     0.36400
H1435       H  0.64259394  0.04041011  0.08682645     0.16800
O1436       O  0.69163716  0.04710636  0.13038673    -0.60100
H1437       H  0.63417565  0.45760213  0.18605659     0.16800
O1438       O  0.58387161  0.45422086  0.14390203    -0.60200
H1439       H  0.58832853  0.43301972  0.13141773     0.43800
H1440       H  0.68486631  0.06495831  0.14655799     0.43800
C1441       C  0.89164538  0.00510924  0.11549481    -0.06200
C1442       C  0.89222085  0.47319494  0.14028126    -0.32700
C1443       C  0.86758458  0.47244055  0.16565766     0.36500
C1444       C  0.84103754  0.00554568  0.16551774    -0.05600
C1445       C  0.83949022  0.02811692  0.13836631    -0.32600
C1446       C  0.86458984  0.02805201  0.11346475     0.36400
H1447       H  0.91245693  0.45479720  0.14060317     0.16800
O1448       O  0.86917455  0.44817868  0.19016954    -0.60100
H1449       H  0.81871216  0.04580620  0.13652043     0.16800
O1450       O  0.86334070  0.05144770  0.08808200    -0.60200
H1451       H  0.84632011  0.04284413  0.07192008     0.43800
H1452       H  0.88727553  0.45563521  0.20573660     0.43800
C1453       C  0.99869150  0.16312172  0.33960727    -0.05300
C1454       C  0.52078643  0.16560667  0.36718161    -0.32700
C1455       C  0.52058465  0.14081453  0.39224851     0.36500
C1456       C  0.99796947  0.11334405  0.39044455    -0.05600
C1457       C  0.97680829  0.11048944  0.36222355    -0.32600
C1458       C  0.97661288  0.13537172  0.33726602     0.36400
H1459       H  0.53793922  0.18671298  0.36948437     0.16800
O1460       O  0.54213306  0.14388500  0.41913533    -0.60100
H1461       H  0.95992684  0.08917266  0.35981529     0.16800
O1462       O  0.95475558  0.13233941  0.31063490    -0.60200
H1463       H  0.93466808  0.14586651  0.31704353     0.43800
H1464       H  0.56324258  0.13240010  0.41202203     0.43800
C1465       C  0.00038424  0.33865023  0.33665109    -0.05300
C1466       C  0.52435989  0.33701290  0.36226218    -0.32700
C1467       C  0.52501449  0.36162343  0.38758231     0.36500
C1468       C  0.00194233  0.39016115  0.38589625    -0.05600
C1469       C  0.97832115  0.39117447  0.35956378    -0.32600
C1470       C  0.97693556  0.36533199  0.33550411     0.36400
H1471       H  0.54284052  0.31686534  0.36264927     0.16800
O1472       O  0.54933434  0.35998653  0.41212813    -0.60100
H1473       H  0.96029440  0.41153412  0.35822723     0.16800
O1474       O  0.95250155  0.36624550  0.31103369    -0.60200
H1475       H  0.93396966  0.35186238  0.31969066     0.43800
H1476       H  0.54062813  0.34363049  0.42885924     0.43800
C1477       C  0.99800371  0.33526175  0.16089612    -0.05300
C1478       C  0.52291038  0.33274033  0.13491035    -0.32700
C1479       C  0.52398181  0.35659094  0.10889323     0.36500
C1480       C  0.00066049  0.38422168  0.10919647    -0.05600
C1481       C  0.97700796  0.38697284  0.13548249    -0.32600
C1482       C  0.97530483  0.36260664  0.16097163     0.36400
H1483       H  0.54127822  0.31248700  0.13521258     0.16800
O1484       O  0.54859490  0.35415666  0.08464743    -0.60100
H1485       H  0.95951482  0.40797389  0.13607157     0.16800
O1486       O  0.95075095  0.36509096  0.18530490    -0.60200
H1487       H  0.95757847  0.38426388  0.19980852     0.43800
H1488       H  0.53969281  0.33792762  0.06784772     0.43800
C1489       C  0.99907609  0.11015253  0.11452384    -0.05300
C1490       C  0.97755351  0.10685029  0.14249668    -0.32700
C1491       C  0.97602425  0.13212273  0.16720655     0.36500
C1492       C  0.99693941  0.16073361  0.16464603    -0.05600
C1493       C  0.51824395  0.16451565  0.13645111    -0.32600
C1494       C  0.51942251  0.13961982  0.11154058     0.36400
H1495       H  0.96140255  0.08497444  0.14482975     0.16800
O1496       O  0.95417508  0.12861394  0.19383325    -0.60100
H1497       H  0.53425668  0.18647930  0.13401728     0.16800
O1498       O  0.54076613  0.14374842  0.08461078    -0.60200
H1499       H  0.56199459  0.13217193  0.09110225     0.43800
H1500       H  0.93237316  0.13792684  0.18581329     0.43800
N1501       N  0.50430066  0.25024878  0.80180253    -0.36400
N1502       N  0.49760804  0.19804103  0.75134730    -0.57000
N1503       N  0.49775080  0.24943177  0.69901316    -0.36400
N1504       N  0.50132237  0.30159381  0.74921101    -0.57000
C1505       C  0.49651810  0.22332054  0.82118595     0.27200
C1506       C  0.49704213  0.27820234  0.81998017     0.27200
C1507       C  0.48756708  0.22205224  0.68147755     0.27200
C1508       C  0.48999463  0.27685707  0.68032168     0.27200
C1509       C  0.50624345  0.17908301  0.77826305     0.35800
C1510       C  0.50237589  0.17853166  0.72380906     0.35800
C1511       C  0.50997606  0.32068510  0.77598977     0.35800
C1512       C  0.50764321  0.32024820  0.72148072     0.35800
C1513       C  0.48430250  0.23427358  0.85208772    -0.21700
C1514       C  0.48454766  0.26891319  0.85129864    -0.21700
C1515       C  0.47299208  0.23217598  0.65137348    -0.21700
C1516       C  0.47451742  0.26678400  0.65064761    -0.21700
C1517       C  0.51665075  0.14741160  0.76780250    -0.22800
C1518       C  0.51419059  0.14705647  0.73325157    -0.22800
C1519       C  0.52216576  0.35158418  0.76528346    -0.22800
C1520       C  0.52080562  0.35125920  0.73065204    -0.22800
C1521       C  0.50183813  0.18922970  0.81214908    -0.18100
C1522       C  0.50358956  0.31173044  0.80981636    -0.18100
C1523       C  0.49879784  0.31043807  0.68839741    -0.18100
C1524       C  0.49410086  0.18822734  0.69055125    -0.18100
H1525       H  0.47612956  0.21893190  0.87307369     0.14800
H1526       H  0.47669385  0.28536922  0.87163234     0.14800
H1527       H  0.46290234  0.21623228  0.63166694     0.14800
H1528       H  0.46572496  0.28267298  0.63032810     0.14800
H1529       H  0.52472454  0.12661858  0.78345063     0.13100
H1530       H  0.52011937  0.12594135  0.71699964     0.13100
H1531       H  0.53052215  0.37238807  0.78082307     0.13100
H1532       H  0.52796058  0.37174608  0.71419180     0.13100
H1533       H  0.51730019  0.24959370  0.77900190     0.26300
H1534       H  0.51307343  0.24910325  0.72028639     0.26300
O1535       O  0.99811513  0.09513606  0.55657508    -0.86300
O1536       O  0.00366145  0.40298555  0.55198066    -0.86500
O1537       O  0.94679303  0.99941078  0.59807310    -0.88100
O1538       O  0.55707043  0.99701904  0.59522292    -0.86900
O1539       O  0.59841527  0.50130566  0.55290439    -0.86500
O1540       O  0.90725440  0.50057639  0.55714288    -0.87900
O1541       O  0.00115068  0.44280498  0.59396452    -0.86300
O1542       O  0.99710607  0.05401841  0.59723969    -0.85900
Zr1543     Zr  0.00296835  0.49889475  0.56849610     2.84300
O1544       O  0.53751496  0.46671127  0.53300658    -1.07900
O1545       O  0.96643084  0.03316777  0.53575690    -1.08600
C1546       C  0.99681052  0.08509031  0.58746289     1.06800
C1547       C  0.00185129  0.41202592  0.58321759     1.06700
C1548       C  0.91571264  0.00112588  0.58855912     1.09700
C1549       C  0.58786195  0.99829819  0.58442464     1.07500
H1550       H  0.95503550  0.45061592  0.54759551     0.33100
O1551       O  0.96896915  0.46521733  0.53399988    -1.28900
H1552       H  0.54896086  0.04823242  0.54882004     0.32700
O1553       O  0.53488191  0.03417907  0.53477316    -1.30500
O1554       O  0.00316892  0.40615721  0.94282166    -0.86300
O1555       O  0.00136699  0.09649936  0.94721274    -0.87800
O1556       O  0.90705246  0.44385506  0.99681302    -0.86400
O1557       O  0.59975610  0.44686562  0.99409228    -0.86400
O1558       O  0.59630235  0.05560204  0.99879781    -0.86100
O1559       O  0.90455395  0.05472774  0.00244920    -0.85900
O1560       O  0.94323533  0.50082711  0.90615477    -0.86300
O1561       O  0.55408316  0.50342723  0.90316288    -0.85800
O1562       O  0.90301035  0.50179744  0.94790626    -0.86800
O1563       O  0.59610047  0.50713240  0.94296634    -0.86000
O1564       O  0.94891049  0.40362595  0.99696085    -0.86400
O1565       O  0.94583113  0.09524560  0.00365579    -0.86100
O1566       O  0.55576636  0.09664921  0.00210443    -0.85800
O1567       O  0.55961100  0.40530705  0.99758972    -0.86200
O1568       O  0.99810112  0.44737619  0.90264627    -0.86500
O1569       O  0.99754831  0.05604255  0.90588250    -0.87800
Zr1570     Zr  0.00322110  0.43227399  0.99854839     2.83100
Zr1571     Zr  0.00083841  0.06791420  0.00152753     2.83500
Zr1572     Zr  0.93291390  0.49920684  0.00152094     2.84100
Zr1573     Zr  0.57030862  0.50094928  0.99870714     2.83400
Zr1574     Zr  0.99909970  0.50149537  0.93236870     2.84200
O1575       O  0.53364822  0.03471318  0.96556896    -1.08400
O1576       O  0.96697380  0.46605237  0.96634920    -1.07900
C1577       C  0.00068792  0.41628914  0.91198873     1.06800
C1578       C  0.99953743  0.08693019  0.91611649     1.09400
C1579       C  0.91770682  0.41312150  0.99579178     1.06900
C1580       C  0.59045866  0.41566512  0.99500067     1.07300
C1581       C  0.58688257  0.08673656  0.00049691     1.06900
C1582       C  0.91471068  0.08557419  0.00340400     1.06400
C1583       C  0.91232790  0.50150321  0.91670807     1.06900
C1584       C  0.58525220  0.50624937  0.91223123     1.06400
H1585       H  0.95117630  0.04907476  0.95384375     0.33100
O1586       O  0.96555810  0.03478727  0.96741868    -1.29500
H1587       H  0.55038262  0.45377099  0.94931408     0.33100
O1588       O  0.53634029  0.46701836  0.96421005    -1.30900
N1589       N  0.75202289  0.00205802  0.69889885    -0.36400
N1590       N  0.80143705  0.00226076  0.75277133    -0.57000
N1591       N  0.74704663  0.00471696  0.80159372    -0.36400
N1592       N  0.69780746  0.00181796  0.74755293    -0.57000
C1593       C  0.78048134  0.99365783  0.68201778     0.27200
C1594       C  0.72556608  0.99340443  0.67919636     0.27200
C1595       C  0.77371629  0.99721224  0.82156735     0.27200
C1596       C  0.71869045  0.99616695  0.81858194     0.27200
C1597       C  0.82154057  0.00953927  0.72625887     0.35800
C1598       C  0.81883543  0.01098111  0.78069421     0.35800
C1599       C  0.67996456  0.00811071  0.71932107     0.35800
C1600       C  0.67716312  0.00896048  0.77366550     0.35800
C1601       C  0.77203020  0.97931921  0.65124186    -0.21700
C1602       C  0.73729597  0.97920985  0.64944661    -0.21700
C1603       C  0.76219945  0.98367801  0.85163529    -0.21700
C1604       C  0.72743779  0.98305328  0.84977273    -0.21700
C1605       C  0.85179017  0.02313618  0.73732656    -0.22800
C1606       C  0.85010927  0.02395945  0.77192110    -0.22800
C1607       C  0.64787277  0.01957367  0.72747917    -0.22800
C1608       C  0.64611553  0.02017675  0.76203049    -0.22800
C1609       C  0.81364234  0.00163277  0.69248862    -0.18100
C1610       C  0.69134415  0.00040184  0.68653883    -0.18100
C1611       C  0.68521871  0.00244053  0.80760569    -0.18100
C1612       C  0.80790083  0.00435581  0.81389726    -0.18100
H1613       H  0.78911264  0.97050268  0.63180224     0.14800
H1614       H  0.72240134  0.97027828  0.62839882     0.14800
H1615       H  0.77723603  0.97552099  0.87287895     0.14800
H1616       H  0.71051266  0.97433675  0.86933414     0.14800
H1617       H  0.87298100  0.03119590  0.72210419     0.13100
H1618       H  0.86975211  0.03274856  0.78871435     0.13100
H1619       H  0.62765244  0.02615775  0.71036103     0.13100
H1620       H  0.62426701  0.02732581  0.77684343     0.13100
H1621       H  0.75084440  0.01684191  0.72054042     0.26300
H1622       H  0.74798627  0.01859721  0.77940496     0.26300
N1623       N  0.75231501  0.19956382  0.99686466    -0.36400
N1624       N  0.70140012  0.25094727  0.99176670    -0.57000
N1625       N  0.75377207  0.30196999  0.98551874    -0.36400
N1626       N  0.80463291  0.25034814  0.99374500    -0.57000
C1627       C  0.72454009  0.18304599  0.00780877     0.27200
C1628       C  0.77960157  0.18274280  0.00840610     0.27200
C1629       C  0.72617775  0.32092002  0.99220503     0.27200
C1630       C  0.78112222  0.32051496  0.99390078     0.27200
C1631       C  0.68297988  0.22308659  0.98514839     0.35800
C1632       C  0.68364131  0.27736232  0.97971667     0.35800
C1633       C  0.82326851  0.22234093  0.98865652     0.35800
C1634       C  0.82402099  0.27649748  0.98406152     0.35800
C1635       C  0.73435240  0.15566232  0.02718219    -0.21700
C1636       C  0.76921111  0.15536997  0.02738872    -0.21700
C1637       C  0.73607125  0.35197157  0.00479306    -0.21700
C1638       C  0.77081656  0.35171028  0.00587000    -0.21700
C1639       C  0.65383867  0.23177939  0.96786238    -0.22800
C1640       C  0.65399340  0.26632656  0.96493374    -0.22800
C1641       C  0.85451081  0.23067433  0.97520895    -0.22800
C1642       C  0.85501764  0.26513714  0.97240863    -0.22800
C1643       C  0.69105482  0.19072943  0.99771195    -0.18100
C1644       C  0.81330449  0.18997888  0.99924672    -0.18100
C1645       C  0.81502566  0.31045124  0.98904003    -0.18100
C1646       C  0.69255824  0.31130661  0.98530546    -0.18100
H1647       H  0.71815052  0.13737123  0.03925839     0.14800
H1648       H  0.78509540  0.13682028  0.03955534     0.14800
H1649       H  0.71998975  0.37272827  0.01231466     0.14800
H1650       H  0.78664773  0.37220905  0.01438849     0.14800
H1651       H  0.63413985  0.21509267  0.95906002     0.13100
H1652       H  0.63446960  0.28162532  0.95354800     0.13100
H1653       H  0.87504168  0.21381872  0.96878024     0.13100
H1654       H  0.87597076  0.28016419  0.96347807     0.13100
H1655       H  0.75275744  0.21850270  0.97873803     0.26300
H1656       H  0.75397436  0.27904805  0.97272069     0.26300
C1657       C  0.84210479  0.33630083  0.99035377    -0.05300
C1658       C  0.84122649  0.36355630  0.96791989    -0.32700
C1659       C  0.86566855  0.38888675  0.96956895     0.36500
C1660       C  0.89197992  0.38663292  0.99329367    -0.05600
C1661       C  0.89192985  0.36271615  0.51857168    -0.32600
C1662       C  0.86712221  0.33771757  0.51783974     0.36400
H1663       H  0.82130662  0.36530984  0.94929194     0.16800
O1664       O  0.86439530  0.41510334  0.94712531    -0.60100
H1665       H  0.90974151  0.36338759  0.53929336     0.16800
O1666       O  0.86503066  0.31515456  0.54389861    -0.60200
H1667       H  0.88466779  0.29987495  0.54103280     0.43800
H1668       H  0.84651561  0.43035911  0.95580024     0.43800
C1669       C  0.88859413  0.11198344  0.00347501    -0.05300
C1670       C  0.85938598  0.10761228  0.98394433    -0.32700
C1671       C  0.83507712  0.13305346  0.98203152     0.36500
C1672       C  0.83898074  0.16275939  0.00102991    -0.05600
C1673       C  0.86539873  0.16465933  0.52447075    -0.32600
C1674       C  0.89039200  0.13975401  0.52503029     0.36400
H1675       H  0.85599330  0.08491735  0.96912817     0.16800
O1676       O  0.80795293  0.12903056  0.96092631    -0.60100
H1677       H  0.86770154  0.18626706  0.54101648     0.16800
O1678       O  0.91770075  0.14357366  0.54596123    -0.60200
H1679       H  0.91169439  0.13137626  0.56690160     0.43800
H1680       H  0.81491006  0.13950231  0.93933614     0.43800
C1681       C  0.66554756  0.33744008  0.98681217    -0.05300
C1682       C  0.66643867  0.36517390  0.96491887    -0.32700
C1683       C  0.64265610  0.39123599  0.96785032     0.36500
C1684       C  0.61702303  0.38947375  0.99250879    -0.05600
C1685       C  0.61718522  0.36497238  0.51793464    -0.32600
C1686       C  0.64191051  0.33977108  0.51674135     0.36400
H1687       H  0.68594173  0.36677556  0.94580470     0.16800
O1688       O  0.64454904  0.41814916  0.94632601    -0.60100
H1689       H  0.59745893  0.36352485  0.53682044     0.16800
O1690       O  0.64150448  0.31467779  0.54043369    -0.60200
H1691       H  0.65625510  0.32288738  0.55889259     0.43800
H1692       H  0.62877762  0.41279075  0.92766966     0.43800
C1693       C  0.61384608  0.11301685  0.00060764    -0.05300
C1694       C  0.60628904  0.14580059  0.51471907    -0.32700
C1695       C  0.63095591  0.17135226  0.51478009     0.36500
C1696       C  0.66423775  0.16406560  0.99960923    -0.05600
C1697       C  0.67082989  0.13184131  0.98652687    -0.32600
C1698       C  0.64654697  0.10630396  0.98794545     0.36400
H1699       H  0.58226877  0.15058230  0.52693212     0.16800
O1700       O  0.62447157  0.20091550  0.53159234    -0.60100
H1701       H  0.69518016  0.12626794  0.97531004     0.16800
O1702       O  0.65508467  0.07496138  0.97631227    -0.60200
H1703       H  0.66569875  0.06341797  0.99576702     0.43800
H1704       H  0.60501768  0.21136218  0.51980248     0.43800
C1705       C  0.83381446  0.00286804  0.84110612    -0.05300
C1706       C  0.85996870  0.47854792  0.84034135    -0.32700
C1707       C  0.88513297  0.47767019  0.86503373     0.36500
C1708       C  0.88552845  0.50191447  0.89091114    -0.05600
C1709       C  0.85862574  0.02402901  0.89313295    -0.32600
C1710       C  0.83327115  0.02549170  0.86848361     0.36400
H1711       H  0.85983658  0.45953603  0.82071243     0.16800
O1712       O  0.90881957  0.45251215  0.86416375    -0.60100
H1713       H  0.85805653  0.04180575  0.91388244     0.16800
O1714       O  0.80896695  0.05006137  0.87047634    -0.60200
H1715       H  0.79244705  0.04180600  0.88733089     0.43800
H1716       H  0.92616003  0.46043309  0.84797433     0.43800
C1717       C  0.61052433  0.50715870  0.88502052    -0.05300
C1718       C  0.60945019  0.48237935  0.85978666    -0.32700
C1719       C  0.63407094  0.48132216  0.83447849     0.36500
C1720       C  0.65768142  0.00282284  0.83306051    -0.05600
C1721       C  0.65893772  0.02659221  0.85911285    -0.32600
C1722       C  0.63458419  0.02672116  0.88462787     0.36400
H1723       H  0.59001042  0.46320025  0.86028929     0.16800
O1724       O  0.63357667  0.45569990  0.81125435    -0.60100
H1725       H  0.67921872  0.04487039  0.85989445     0.16800
O1726       O  0.63633706  0.05045897  0.90964056    -0.60200
H1727       H  0.65767419  0.04544462  0.92168117     0.43800
H1728       H  0.61677015  0.46267311  0.79410952     0.43800
C1729       C  0.61492201  0.99760037  0.60983166    -0.05300
C1730       C  0.64133021  0.02103930  0.60779229    -0.32700
C1731       C  0.66652947  0.02196680  0.63245899     0.36500
C1732       C  0.66602129  0.99863482  0.65906480    -0.05600
C1733       C  0.63816436  0.47909902  0.66357713    -0.32600
C1734       C  0.61292209  0.47812948  0.63896970     0.36400
H1735       H  0.64181804  0.03935775  0.58759129     0.16800
O1736       O  0.69120935  0.04610713  0.63076497    -0.60100
H1737       H  0.63558040  0.46361952  0.68589190     0.16800
O1738       O  0.58546692  0.45764773  0.64375423    -0.60200
H1739       H  0.59138379  0.43611941  0.63249826     0.43800
H1740       H  0.68128038  0.06630979  0.64168423     0.43800
C1741       C  0.89004570  0.00206758  0.61537533    -0.06200
C1742       C  0.89299957  0.47796474  0.64152427    -0.32700
C1743       C  0.86803019  0.47785774  0.66662539     0.36500
C1744       C  0.84086827  0.00217812  0.66668453    -0.05600
C1745       C  0.83828187  0.02451002  0.63942075    -0.32600
C1746       C  0.86259939  0.02455043  0.61383604     0.36400
H1747       H  0.91321578  0.45957493  0.64259904     0.16800
O1748       O  0.86904074  0.45388778  0.69145923    -0.60100
H1749       H  0.81721177  0.04189593  0.63798724     0.16800
O1750       O  0.86018894  0.04764842  0.58827288    -0.60200
H1751       H  0.84429312  0.03764563  0.57177599     0.43800
H1752       H  0.88717976  0.46119236  0.70704547     0.43800
C1753       C  0.99933785  0.16303510  0.83898726    -0.05300
C1754       C  0.52436542  0.16448374  0.86583941    -0.32700
C1755       C  0.52396894  0.14017899  0.89142255     0.36500
C1756       C  0.99954353  0.11343354  0.89002043    -0.05600
C1757       C  0.97666434  0.11141848  0.86310977    -0.32600
C1758       C  0.97613874  0.13612813  0.83800304     0.36400
H1759       H  0.54295076  0.18445765  0.86673212     0.16800
O1760       O  0.54720043  0.14213655  0.91698917    -0.60100
H1761       H  0.95875561  0.09084907  0.86183792     0.16800
O1762       O  0.95289289  0.13368831  0.81250895    -0.60200
H1763       H  0.93445704  0.14940431  0.81885620     0.43800
H1764       H  0.56725821  0.12962474  0.90866869     0.43800
C1765       C  0.00103665  0.33883792  0.83583429    -0.05300
C1766       C  0.52584931  0.33792746  0.86253646    -0.32700
C1767       C  0.52518764  0.36270813  0.88761272     0.36500
C1768       C  0.00124600  0.38995091  0.88549822    -0.05600
C1769       C  0.97849931  0.39132543  0.85839807    -0.32600
C1770       C  0.97774067  0.36564188  0.83412855     0.36400
H1771       H  0.54424323  0.31776229  0.86410514     0.16800
O1772       O  0.54806217  0.36104310  0.91350590    -0.60100
H1773       H  0.96065349  0.41181990  0.85659085     0.16800
O1774       O  0.95401940  0.36679439  0.80896444    -0.60200
H1775       H  0.93593935  0.35111225  0.81619597     0.43800
H1776       H  0.53817558  0.34502083  0.92991230     0.43800
C1777       C  0.99820510  0.33622137  0.66053701    -0.05300
C1778       C  0.51987033  0.33234032  0.63312592    -0.32700
C1779       C  0.52026927  0.35625086  0.60721701     0.36500
C1780       C  0.00001809  0.38511833  0.60886340    -0.05600
C1781       C  0.97750529  0.38848191  0.63604395    -0.32600
C1782       C  0.97624109  0.36414940  0.66156690     0.36400
H1783       H  0.53654870  0.31073651  0.63153502     0.16800
O1784       O  0.54208376  0.35197020  0.58066540    -0.60100
H1785       H  0.96063709  0.40996124  0.63737289     0.16800
O1786       O  0.95283890  0.36727537  0.68693378    -0.60200
H1787       H  0.96068866  0.38638610  0.70099654     0.43800
H1788       H  0.53007693  0.33696915  0.56467212     0.43800
C1789       C  0.99537499  0.11153961  0.61359940    -0.05300
C1790       C  0.97199008  0.10933619  0.64015845    -0.32700
C1791       C  0.97042240  0.13452217  0.66492788     0.36500
C1792       C  0.99294528  0.16197068  0.66367223    -0.05600
C1793       C  0.51660874  0.16457499  0.63674927    -0.32600
C1794       C  0.51769174  0.13998592  0.61151151     0.36400
H1795       H  0.95469548  0.08825825  0.64145278     0.16800
O1796       O  0.94722053  0.13183261  0.69050592    -0.60100
H1797       H  0.53408658  0.18551448  0.63565390     0.16800
O1798       O  0.54070199  0.14316946  0.58584402    -0.60200
H1799       H  0.56092370  0.13051269  0.59340765     0.43800
H1800       H  0.92942182  0.14860442  0.68523697     0.43800
N1801       N  0.49369157  0.74873690  0.30236856    -0.36400
N1802       N  0.49366968  0.69673924  0.25118469    -0.57000
N1803       N  0.49454692  0.74836115  0.19942891    -0.36400
N1804       N  0.49106021  0.80049601  0.25072045    -0.57000
C1805       C  0.48645571  0.72115524  0.32091961     0.27200
C1806       C  0.48448036  0.77599259  0.32070642     0.27200
C1807       C  0.48685330  0.72069547  0.18098477     0.27200
C1808       C  0.48664727  0.77566522  0.18060074     0.27200
C1809       C  0.50179268  0.67808307  0.27839287     0.35800
C1810       C  0.50087051  0.67762605  0.22395766     0.35800
C1811       C  0.49905400  0.81910951  0.27815053     0.35800
C1812       C  0.49955347  0.81911705  0.22348601     0.35800
C1813       C  0.47220304  0.73089358  0.35136460    -0.21700
C1814       C  0.47076099  0.76553008  0.35115682    -0.21700
C1815       C  0.47396185  0.73053635  0.15004694    -0.21700
C1816       C  0.47380335  0.76520863  0.14981564    -0.21700
C1817       C  0.51442933  0.64703424  0.26843890    -0.22800
C1818       C  0.51374988  0.64670879  0.23386330    -0.22800
C1819       C  0.51306807  0.84950591  0.26825246    -0.22800
C1820       C  0.51315517  0.84959752  0.23362151    -0.22800
C1821       C  0.49483983  0.68772341  0.31191904    -0.18100
C1822       C  0.49145322  0.80981469  0.31177965    -0.18100
C1823       C  0.49314423  0.80958027  0.18970793    -0.18100
C1824       C  0.49356038  0.68695904  0.19047559    -0.18100
H1825       H  0.46412933  0.71476430  0.37179649     0.14800
H1826       H  0.46137740  0.78119557  0.37146984     0.14800
H1827       H  0.46588260  0.71441492  0.12957370     0.14800
H1828       H  0.46551525  0.78090539  0.12914513     0.14800
H1829       H  0.52269070  0.62654929  0.28439346     0.13100
H1830       H  0.52152553  0.62597439  0.21788623     0.13100
H1831       H  0.52204277  0.86967070  0.28426512     0.13100
H1832       H  0.52215309  0.86980521  0.21773301     0.13100
H1833       H  0.50817203  0.74907663  0.28047750     0.26300
H1834       H  0.50815959  0.74862121  0.22182932     0.26300
O1835       O  0.99890522  0.59395114  0.05791317    -0.86300
O1836       O  0.99994519  0.90265938  0.05401128    -0.86500
O1837       O  0.94762813  0.49623823  0.09723916    -0.88100
O1838       O  0.55835786  0.49467838  0.09461918    -0.86900
O1839       O  0.59777256  0.00121227  0.05240716    -0.86500
O1840       O  0.90678634  0.00358440  0.05781654    -0.87900
O1841       O  0.99892386  0.94302145  0.09547246    -0.86300
O1842       O  0.99827646  0.55217259  0.09788389    -0.85900
Zr1843     Zr  0.00204687  0.99855015  0.06849412     2.84300
O1844       O  0.53603707  0.96572003  0.03340987    -1.07900
O1845       O  0.96693930  0.53261992  0.03607610    -1.08600
C1846       C  0.99798876  0.58338849  0.08863043     1.06800
C1847       C  0.99873365  0.91205808  0.08520578     1.06700
C1848       C  0.91645931  0.49730423  0.08773699     1.09700
C1849       C  0.58932089  0.49530951  0.08425844     1.07500
H1850       H  0.95270771  0.95135550  0.04882184     0.33100
O1851       O  0.96685710  0.96532472  0.03484007    -1.28900
H1852       H  0.55029395  0.54671081  0.04966779     0.32700
O1853       O  0.53632264  0.53299313  0.03516526    -1.30500
O1854       O  0.00052304  0.90428295  0.44615833    -0.86300
O1855       O  0.99998663  0.59740189  0.44790962    -0.87800
O1856       O  0.90435542  0.94496575  0.49892104    -0.86400
O1857       O  0.59758162  0.94727919  0.49775472    -0.86400
O1858       O  0.59568323  0.55795673  0.49927805    -0.86100
O1859       O  0.90481386  0.55386931  0.50365126    -0.85900
O1860       O  0.94223509  0.99871861  0.40601275    -0.86300
O1861       O  0.55161755  0.99969117  0.40239998    -0.85800
O1862       O  0.90207888  0.00153504  0.44773046    -0.86800
O1863       O  0.59357103  0.00319484  0.44224883    -0.86000
O1864       O  0.94595329  0.90450340  0.49950205    -0.86400
O1865       O  0.94506253  0.59538944  0.50493250    -0.86100
O1866       O  0.55411697  0.59811635  0.50182687    -0.85800
O1867       O  0.55740439  0.90582201  0.50208831    -0.86200
O1868       O  0.99659522  0.94490933  0.40527542    -0.86500
O1869       O  0.99810705  0.55714094  0.40625338    -0.87800
Zr1870     Zr  0.00085628  0.93208456  0.50086265     2.83100
Zr1871     Zr  0.00054717  0.56880401  0.50212693     2.83500
Zr1872     Zr  0.93162455  0.99977896  0.50190010     2.84100
Zr1873     Zr  0.56840316  0.00126286  0.49877867     2.83400
Zr1874     Zr  0.99786364  0.00017363  0.43275406     2.84200
O1875       O  0.53407716  0.53552692  0.46565369    -1.08400
O1876       O  0.96537743  0.96564983  0.46753528    -1.07900
C1877       C  0.99837388  0.91391969  0.41516682     1.06800
C1878       C  0.99874253  0.58790387  0.41677998     1.09400
C1879       C  0.91479044  0.91414675  0.49845615     1.06900
C1880       C  0.58829612  0.91620038  0.49988076     1.07300
C1881       C  0.58538885  0.58878889  0.50040841     1.06900
C1882       C  0.91416473  0.58496490  0.50507788     1.06400
C1883       C  0.91131758  0.00014485  0.41647901     1.06900
C1884       C  0.58286024  0.00167037  0.41143481     1.06400
H1885       H  0.95176638  0.54945598  0.45424131     0.33100
O1886       O  0.96638589  0.53525648  0.46759908    -1.29500
H1887       H  0.54803497  0.95259246  0.45104746     0.33100
O1888       O  0.53408371  0.96650946  0.46543491    -1.30900
N1889       N  0.75277682  0.49651371  0.19967482    -0.36400
N1890       N  0.80357024  0.50001506  0.25250127    -0.57000
N1891       N  0.75015977  0.50577593  0.30249685    -0.36400
N1892       N  0.69942989  0.49794740  0.24966919    -0.57000
C1893       C  0.78091273  0.48790349  0.18230482     0.27200
C1894       C  0.72588569  0.48731911  0.18078709     0.27200
C1895       C  0.77724684  0.50151597  0.32278739     0.27200
C1896       C  0.72225926  0.49994005  0.32125800     0.27200
C1897       C  0.82339480  0.50473061  0.22515650     0.35800
C1898       C  0.82191134  0.50984356  0.27948877     0.35800
C1899       C  0.68089324  0.50292944  0.22150884     0.35800
C1900       C  0.67944738  0.50666008  0.27592226     0.35800
C1901       C  0.77184021  0.47296687  0.15201445    -0.21700
C1902       C  0.73708493  0.47243124  0.15113404    -0.21700
C1903       C  0.76639580  0.49310179  0.35496335    -0.21700
C1904       C  0.73166493  0.49221819  0.35401517    -0.21700
C1905       C  0.85448191  0.51751117  0.23480604    -0.22800
C1906       C  0.85358536  0.52062243  0.26928326    -0.22800
C1907       C  0.64904555  0.51486730  0.22999725    -0.22800
C1908       C  0.64802175  0.51685918  0.26450905    -0.22800
C1909       C  0.81436729  0.49588610  0.19185004    -0.18100
C1910       C  0.69173001  0.49473216  0.18848529    -0.18100
C1911       C  0.68858380  0.50389730  0.31015941    -0.18100
C1912       C  0.81129435  0.50692205  0.31339174    -0.18100
H1913       H  0.78852757  0.46392148  0.13233590     0.14800
H1914       H  0.72181888  0.46285048  0.13064557     0.14800
H1915       H  0.78181839  0.48855560  0.37700183     0.14800
H1916       H  0.71521085  0.48695934  0.37516517     0.14800
H1917       H  0.87565182  0.52376213  0.21871789     0.13100
H1918       H  0.87391016  0.52973167  0.28506649     0.13100
H1919       H  0.62857701  0.52136067  0.21316241     0.13100
H1920       H  0.62667116  0.52507848  0.27949754     0.13100
H1921       H  0.75200469  0.51182996  0.22092891     0.26300
H1922       H  0.75052101  0.51578549  0.27834560     0.26300
N1923       N  0.75033699  0.69959799  0.50128380    -0.36400
N1924       N  0.69978450  0.75229218  0.49789152    -0.57000
N1925       N  0.75243150  0.80226305  0.49427764    -0.36400
N1926       N  0.80318048  0.74945626  0.50095384    -0.57000
C1927       C  0.72203848  0.68274299  0.51003812     0.27200
C1928       C  0.77704003  0.68116427  0.51183393     0.27200
C1929       C  0.72533407  0.82154348  0.50205852     0.27200
C1930       C  0.78021245  0.82004353  0.50262183     0.27200
C1931       C  0.68077905  0.72514169  0.49034945     0.35800
C1932       C  0.68178540  0.77953094  0.48830364     0.35800
C1933       C  0.82167830  0.72133180  0.49549827     0.35800
C1934       C  0.82260816  0.77566283  0.49132636     0.35800
C1935       C  0.73084751  0.65334078  0.52674314    -0.21700
C1936       C  0.76563334  0.65232003  0.52782396    -0.21700
C1937       C  0.73599425  0.85194454  0.51553098    -0.21700
C1938       C  0.77074261  0.85101415  0.51586021    -0.21700
C1939       C  0.65084967  0.73517021  0.47521139    -0.22800
C1940       C  0.65131052  0.76976720  0.47432820    -0.22800
C1941       C  0.85295687  0.72970158  0.48222109    -0.22800
C1942       C  0.85351553  0.76419488  0.47953181    -0.22800
C1943       C  0.68886323  0.69199265  0.50039475    -0.18100
C1944       C  0.81118232  0.68854423  0.50445601    -0.18100
C1945       C  0.81372611  0.80977850  0.49614766    -0.18100
C1946       C  0.69148992  0.81295601  0.49512912    -0.18100
H1947       H  0.71401004  0.63425844  0.53651301     0.14800
H1948       H  0.78078614  0.63231134  0.53851188     0.14800
H1949       H  0.72040331  0.87274654  0.52392432     0.14800
H1950       H  0.78715564  0.87096797  0.52459007     0.14800
H1951       H  0.63041666  0.71928925  0.46658395     0.13100
H1952       H  0.63140865  0.78590517  0.46490413     0.13100
H1953       H  0.87329871  0.71278773  0.47535643     0.13100
H1954       H  0.87442192  0.77916671  0.47041421     0.13100
H1955       H  0.75140030  0.72013492  0.48506775     0.26300
H1956       H  0.75218497  0.77992959  0.48048582     0.26300
C1957       C  0.84054952  0.83587252  0.49581534    -0.05300
C1958       C  0.83843682  0.86285391  0.47305292    -0.32700
C1959       C  0.86217222  0.88892060  0.47396133     0.36500
C1960       C  0.88906511  0.88755320  0.49711171    -0.05600
C1961       C  0.89038299  0.86123681  0.01929893    -0.32600
C1962       C  0.86622859  0.83562695  0.01784802     0.36400
H1963       H  0.81798409  0.86392244  0.45494928     0.16800
O1964       O  0.85950420  0.91503840  0.45152617    -0.60100
H1965       H  0.90996155  0.86015026  0.03834321     0.16800
O1966       O  0.86679343  0.81049206  0.04151298    -0.60200
H1967       H  0.88566086  0.79546051  0.03477446     0.43800
H1968       H  0.84295077  0.93081582  0.46175797     0.43800
C1969       C  0.88729130  0.61071526  0.50647487    -0.05300
C1970       C  0.85832243  0.60685963  0.48648603    -0.32700
C1971       C  0.83345603  0.63192617  0.48569525     0.36500
C1972       C  0.83677423  0.66096843  0.50590129    -0.05600
C1973       C  0.86530418  0.66474174  0.02470118    -0.32600
C1974       C  0.88997619  0.63948168  0.02594891     0.36400
H1975       H  0.85552156  0.58488673  0.47049558     0.16800
O1976       O  0.80631827  0.62815954  0.46456329    -0.60100
H1977       H  0.86771537  0.68659549  0.04090259     0.16800
O1978       O  0.91660821  0.64294216  0.04778226    -0.60200
H1979       H  0.91005166  0.63011928  0.06818742     0.43800
H1980       H  0.81376057  0.63758187  0.44265706     0.43800
C1981       C  0.66510431  0.83963220  0.49664583    -0.05300
C1982       C  0.66622032  0.86678600  0.47411206    -0.32700
C1983       C  0.64163007  0.89214390  0.47534290     0.36500
C1984       C  0.61519822  0.89038543  0.49913817    -0.05600
C1985       C  0.61333173  0.86159715  0.01806139    -0.32600
C1986       C  0.63848026  0.83677564  0.01692182     0.36400
H1987       H  0.68615128  0.86818069  0.45542441     0.16800
O1988       O  0.64332739  0.91822843  0.45278875    -0.60100
H1989       H  0.59333560  0.85961776  0.03661128     0.16800
O1990       O  0.63764190  0.81087487  0.03972228    -0.60200
H1991       H  0.65009964  0.81932023  0.05969080     0.43800
H1992       H  0.62799488  0.91180275  0.43409999     0.43800
C1993       C  0.61165096  0.61532122  0.50011279    -0.05300
C1994       C  0.60735903  0.64442566  0.02053936    -0.32700
C1995       C  0.63209148  0.66980449  0.02129100     0.36500
C1996       C  0.66185804  0.66586856  0.50060597    -0.05600
C1997       C  0.66686459  0.63582817  0.48264081    -0.32600
C1998       C  0.64252900  0.61039897  0.48296937     0.36400
H1999       H  0.58372249  0.64853800  0.03367344     0.16800
O2000       O  0.62650362  0.69842940  0.03997202    -0.60100
H2001       H  0.69004079  0.63189107  0.46859530     0.16800
O2002       O  0.64891841  0.58111843  0.46572517    -0.60200
H2003       H  0.66278792  0.56726887  0.48124547     0.43800
H2004       H  0.60731660  0.71012847  0.02895876     0.43800
C2005       C  0.83758221  0.50660666  0.34011750    -0.05300
C2006       C  0.85934390  0.97836723  0.33903761    -0.32700
C2007       C  0.88441282  0.97701874  0.36392963     0.36500
C2008       C  0.88444038  0.00056851  0.39051965    -0.05600
C2009       C  0.86368728  0.52981426  0.39055826    -0.32600
C2010       C  0.83914260  0.53177721  0.36515281     0.36400
H2011       H  0.85952677  0.95991749  0.31887645     0.16800
O2012       O  0.90810992  0.95185035  0.36276036    -0.60100
H2013       H  0.86487728  0.54936803  0.40961326     0.16800
O2014       O  0.81751974  0.55878786  0.36428659    -0.60200
H2015       H  0.80103692  0.55484483  0.38269456     0.43800
H2016       H  0.92349082  0.95809471  0.34405200     0.43800
C2017       C  0.60842759  0.00174623  0.38423843    -0.05300
C2018       C  0.60516436  0.97964946  0.35674037    -0.32700
C2019       C  0.63014825  0.97818654  0.33162424     0.36500
C2020       C  0.66136919  0.50509060  0.33582247    -0.05600
C2021       C  0.65622489  0.53455136  0.35473186    -0.32600
C2022       C  0.63099637  0.53585323  0.37949159     0.36400
H2023       H  0.58374789  0.96275310  0.35526593     0.16800
O2024       O  0.62745448  0.95485893  0.30620931    -0.60100
H2025       H  0.67177570  0.55650049  0.35017016     0.16800
O2026       O  0.62592594  0.56511412  0.39720244    -0.60200
H2027       H  0.60797318  0.57730973  0.38476236     0.43800
H2028       H  0.60884918  0.96299908  0.29160752     0.43800
C2029       C  0.61603282  0.49357199  0.11020009    -0.05300
C2030       C  0.64538480  0.51298338  0.10644286    -0.32700
C2031       C  0.66992260  0.51376412  0.13179566     0.36500
C2032       C  0.66618384  0.49370013  0.16082814    -0.05600
C2033       C  0.63945273  0.97642247  0.16054925    -0.32600
C2034       C  0.61425743  0.97584087  0.13597131     0.36400
H2035       H  0.64868032  0.52870004  0.08439044     0.16800
O2036       O  0.69720079  0.53471706  0.12828214    -0.60100
H2037       H  0.63850460  0.95847273  0.18106153     0.16800
O2038       O  0.58894009  0.95239428  0.13820874    -0.60200
H2039       H  0.59572344  0.93396755  0.12269602     0.43800
H2040       H  0.68958322  0.55679640  0.13720261     0.43800
C2041       C  0.89051229  0.49711609  0.11434842    -0.06200
C2042       C  0.89379655  0.98330515  0.14318500    -0.32700
C2043       C  0.86868147  0.98331443  0.16805515     0.36500
C2044       C  0.84091871  0.49593195  0.16531456    -0.05600
C2045       C  0.83946928  0.52007977  0.13959556    -0.32600
C2046       C  0.86401005  0.52077095  0.11417165     0.36400
H2047       H  0.91454221  0.96557205  0.14508153     0.16800
O2048       O  0.87053517  0.96059351  0.19400807    -0.60100
H2049       H  0.81934237  0.53860198  0.13943259     0.16800
O2050       O  0.86302003  0.54573670  0.09031502    -0.60200
H2051       H  0.84395366  0.53984498  0.07524129     0.43800
H2052       H  0.88945582  0.96838186  0.20840358     0.43800
C2053       C  0.99653360  0.66264074  0.33927900    -0.05300
C2054       C  0.51796119  0.66499413  0.36580545    -0.32700
C2055       C  0.51907562  0.64069392  0.39122767     0.36500
C2056       C  0.99774019  0.61421972  0.39085825    -0.05600
C2057       C  0.97580450  0.61049706  0.36336445    -0.32600
C2058       C  0.97462573  0.63478011  0.33802944     0.36400
H2059       H  0.53468913  0.68651446  0.36719207     0.16800
O2060       O  0.54124305  0.64460799  0.41750035    -0.60100
H2061       H  0.95909105  0.58896113  0.36185295     0.16800
O2062       O  0.95197924  0.63109487  0.31214377    -0.60200
H2063       H  0.93263185  0.64582013  0.31816671     0.43800
H2064       H  0.56307974  0.63557145  0.40914875     0.43800
C2065       C  0.99544352  0.83695003  0.33840533    -0.05300
C2066       C  0.51097723  0.83082220  0.36825594    -0.32700
C2067       C  0.51233952  0.85522376  0.39373128     0.36500
C2068       C  0.99771799  0.88727081  0.38896250    -0.05600
C2069       C  0.97853400  0.89201127  0.35961475    -0.32600
C2070       C  0.97639624  0.86677048  0.33505328     0.36400
H2071       H  0.52481629  0.80751026  0.37156706     0.16800
O2072       O  0.53046395  0.84846037  0.42238556    -0.60100
H2073       H  0.96439291  0.91502433  0.35611847     0.16800
O2074       O  0.95553971  0.87146002  0.30787815    -0.60200
H2075       H  0.93374907  0.86104881  0.31442613     0.43800
H2076       H  0.51467273  0.83601535  0.43725159     0.43800
C2077       C  0.99505998  0.83586832  0.16269475    -0.05300
C2078       C  0.51541791  0.83212683  0.13491365    -0.32700
C2079       C  0.51641750  0.85624003  0.10916403     0.36500
C2080       C  0.99696904  0.88530615  0.11125619    -0.05600
C2081       C  0.97543044  0.88915204  0.13920179    -0.32600
C2082       C  0.97414647  0.86460462  0.16463528     0.36400
H2083       H  0.53178460  0.81029677  0.13322457     0.16800
O2084       O  0.53824703  0.85164392  0.08268638    -0.60100
H2085       H  0.95927017  0.91111680  0.14116474     0.16800
O2086       O  0.95166364  0.86830514  0.19076430    -0.60200
H2087       H  0.96014345  0.88753795  0.20428851     0.43800
H2088       H  0.52550677  0.83807393  0.06599340     0.43800
C2089       C  0.99680942  0.60947730  0.11508473    -0.05300
C2090       C  0.97357518  0.60700984  0.14170614    -0.32700
C2091       C  0.97137520  0.63251567  0.16608091     0.36500
C2092       C  0.99306258  0.66062605  0.16434071    -0.05600
C2093       C  0.51738068  0.66240800  0.13769590    -0.32600
C2094       C  0.51952816  0.63701931  0.11335374     0.36400
H2095       H  0.95672655  0.58559085  0.14324181     0.16800
O2096       O  0.94831567  0.62956762  0.19174006    -0.60100
H2097       H  0.53449488  0.68362539  0.13632218     0.16800
O2098       O  0.54320147  0.63961442  0.08823560    -0.60200
H2099       H  0.56467290  0.63182899  0.09848433     0.43800
H2100       H  0.92835982  0.64269163  0.18429757     0.43800
N2101       N  0.49700560  0.74937739  0.80245668    -0.36400
N2102       N  0.49323077  0.69686930  0.75181307    -0.57000
N2103       N  0.49427016  0.74798949  0.69958956    -0.36400
N2104       N  0.49496635  0.80039904  0.75022409    -0.57000
C2105       C  0.48833232  0.72239170  0.82126948     0.27200
C2106       C  0.48890381  0.77723432  0.82042045     0.27200
C2107       C  0.48494461  0.72044593  0.68181454     0.27200
C2108       C  0.48615462  0.77534611  0.68094823     0.27200
C2109       C  0.50154191  0.67834147  0.77909722     0.35800
C2110       C  0.49960114  0.67743714  0.72455591     0.35800
C2111       C  0.50432215  0.81906030  0.77712709     0.35800
C2112       C  0.50332728  0.81834792  0.72255937     0.35800
C2113       C  0.47429034  0.73320502  0.85147570    -0.21700
C2114       C  0.47467546  0.76787048  0.85094681    -0.21700
C2115       C  0.47058053  0.73037717  0.65154876    -0.21700
C2116       C  0.47125761  0.76505744  0.65104040    -0.21700
C2117       C  0.51355775  0.64704629  0.76912531    -0.22800
C2118       C  0.51219801  0.64642779  0.73450783    -0.22800
C2119       C  0.51908719  0.84883211  0.76657556    -0.22800
C2120       C  0.51855927  0.84833176  0.73190861    -0.22800
C2121       C  0.49527739  0.68848128  0.81271537    -0.18100
C2122       C  0.49677349  0.81059883  0.81085194    -0.18100
C2123       C  0.49452872  0.80900475  0.68931210    -0.18100
C2124       C  0.49184725  0.68673220  0.69109039    -0.18100
H2125       H  0.46512015  0.71774796  0.87196244     0.14800
H2126       H  0.46595077  0.78427706  0.87096720     0.14800
H2127       H  0.46109341  0.71428702  0.63166052     0.14800
H2128       H  0.46235456  0.78084254  0.63069140     0.14800
H2129       H  0.52186095  0.62659852  0.78510295     0.13100
H2130       H  0.51933566  0.62545492  0.71854881     0.13100
H2131       H  0.52877140  0.86896063  0.78222489     0.13100
H2132       H  0.52777092  0.86801242  0.71548503     0.13100
H2133       H  0.51146778  0.74879694  0.78052973     0.26300
H2134       H  0.50921826  0.74795894  0.72114349     0.26300
O2135       O  0.99842318  0.59473882  0.55756402    -0.86300
O2136       O  0.99891683  0.90320060  0.55508454    -0.86500
O2137       O  0.94869286  0.49851310  0.59759133    -0.88100
O2138       O  0.55808823  0.49705952  0.59439458    -0.86900
O2139       O  0.59702246  0.00054943  0.55322534    -0.86500
O2140       O  0.90531182  0.00175666  0.55766919    -0.87900
O2141       O  0.99749559  0.94348446  0.59659599    -0.86300
O2142       O  0.99908871  0.55306902  0.59767335    -0.85900
Zr2143     Zr  0.00079346  0.99895551  0.56931615     2.84300
O2144       O  0.53593047  0.96635576  0.53384038    -1.07900
O2145       O  0.96799088  0.53324358  0.53581992    -1.08600
C2146       C  0.99790335  0.58421922  0.58831562     1.06800
C2147       C  0.99739160  0.91251426  0.58628826     1.06700
C2148       C  0.91752834  0.49996706  0.58806380     1.09700
C2149       C  0.58901915  0.49867246  0.58398653     1.07500
H2150       H  0.95197762  0.95124889  0.54915567     0.33100
O2151       O  0.96614969  0.96536308  0.53533599    -1.28900
H2152       H  0.54929928  0.54874826  0.54907716     0.32700
O2153       O  0.53550023  0.53463581  0.53476681    -1.30500
O2154       O  0.00045895  0.90465638  0.94487719    -0.86300
O2155       O  0.99873615  0.59700491  0.94857675    -0.87800
O2156       O  0.90462847  0.94573700  0.99971478    -0.86400
O2157       O  0.59722762  0.94635112  0.99643139    -0.86400
O2158       O  0.59701211  0.55624148  0.00132495    -0.86100
O2159       O  0.90417455  0.55363330  0.00306277    -0.85900
O2160       O  0.94302696  0.99925285  0.90552512    -0.86300
O2161       O  0.55159704  0.00043333  0.90225949    -0.85800
O2162       O  0.90313971  0.00154457  0.94751660    -0.86800
O2163       O  0.59369943  0.00347200  0.94198175    -0.86000
O2164       O  0.94589750  0.90490960  0.99928417    -0.86400
O2165       O  0.94469502  0.59488050  0.00524257    -0.86100
O2166       O  0.55559324  0.59657593  0.00388614    -0.85800
O2167       O  0.55677195  0.90508549  0.00010367    -0.86200
O2168       O  0.99646206  0.94549353  0.90418738    -0.86500
O2169       O  0.99670235  0.55698255  0.90672241    -0.87800
Zr2170     Zr  0.00109851  0.93195064  0.99994552     2.83100
Zr2171     Zr  0.99998018  0.56801046  0.00248293     2.83500
Zr2172     Zr  0.93247845  0.00025965  0.00179896     2.84100
Zr2173     Zr  0.56860578  0.00069094  0.99841190     2.83400
Zr2174     Zr  0.99839638  0.00040360  0.93229152     2.84200
O2175       O  0.53472415  0.53496606  0.96625912    -1.08400
O2176       O  0.96574363  0.96601661  0.96705424    -1.07900
C2177       C  0.99829691  0.91447474  0.91392289     1.06800
C2178       C  0.99732202  0.58770428  0.91740732     1.09400
C2179       C  0.91481137  0.91484215  0.99882754     1.06900
C2180       C  0.58772143  0.91527952  0.99780367     1.07300
C2181       C  0.58688747  0.58715863  0.00297643     1.06900
C2182       C  0.91373359  0.58469647  0.00465819     1.06400
C2183       C  0.91221165  0.00035449  0.91620474     1.06900
C2184       C  0.58281433  0.00238587  0.91123650     1.06400
H2185       H  0.95092261  0.54892015  0.95458757     0.33100
O2186       O  0.96554382  0.53470378  0.96787550    -1.29500
H2187       H  0.54780944  0.95271731  0.95041127     0.33100
O2188       O  0.53395443  0.96652725  0.96501448    -1.30900
N2189       N  0.75280891  0.50353039  0.69868088    -0.36400
N2190       N  0.80264923  0.50300462  0.75203071    -0.57000
N2191       N  0.74878208  0.50512226  0.80138865    -0.36400
N2192       N  0.69894748  0.50302364  0.74809616    -0.57000
C2193       C  0.78095239  0.49403641  0.68180085     0.27200
C2194       C  0.72599229  0.49405983  0.67984723     0.27200
C2195       C  0.77552238  0.49805917  0.82133987     0.27200
C2196       C  0.72053946  0.49759014  0.81899628     0.27200
C2197       C  0.82285234  0.50938418  0.72532877     0.35800
C2198       C  0.82068213  0.51070438  0.77987172     0.35800
C2199       C  0.68128967  0.51056241  0.72005110     0.35800
C2200       C  0.67894801  0.51110008  0.77445447     0.35800
C2201       C  0.77196489  0.47817592  0.65197654    -0.21700
C2202       C  0.73719213  0.47805540  0.65080545    -0.21700
C2203       C  0.76415966  0.48577721  0.85203093    -0.21700
C2204       C  0.72940000  0.48546793  0.85054518    -0.21700
C2205       C  0.85384842  0.52135782  0.73619927    -0.22800
C2206       C  0.85250959  0.52209229  0.77083587    -0.22800
C2207       C  0.65000411  0.52385434  0.72858587    -0.22800
C2208       C  0.64846689  0.52405903  0.76319684    -0.22800
C2209       C  0.81436650  0.50171094  0.69161058    -0.18100
C2210       C  0.69196874  0.50207973  0.68719348    -0.18100
C2211       C  0.68717449  0.50445637  0.80833236    -0.18100
C2212       C  0.80964768  0.50481196  0.81323770    -0.18100
H2213       H  0.78873660  0.46808239  0.63289244     0.14800
H2214       H  0.72192053  0.46789408  0.63060447     0.14800
H2215       H  0.77929528  0.47843993  0.87350548     0.14800
H2216       H  0.71256755  0.47790523  0.87066692     0.14800
H2217       H  0.87534725  0.52824917  0.72082846     0.13100
H2218       H  0.87276551  0.52970674  0.78747594     0.13100
H2219       H  0.63015081  0.53190693  0.71167393     0.13100
H2220       H  0.62723854  0.53234158  0.77832268     0.13100
H2221       H  0.75202517  0.51931730  0.71965574     0.26300
H2222       H  0.74965313  0.51835901  0.77882555     0.26300
N2223       N  0.75094691  0.70001269  0.00038835    -0.36400
N2224       N  0.70008585  0.75206702  0.99686331    -0.57000
N2225       N  0.75247275  0.80256999  0.98987063    -0.36400
N2226       N  0.80345545  0.75020986  0.99670587    -0.57000
C2227       C  0.72319655  0.68340361  0.01126305     0.27200
C2228       C  0.77825179  0.68204987  0.01016511     0.27200
C2229       C  0.72518481  0.82157948  0.99766956     0.27200
C2230       C  0.78009713  0.82066185  0.99819895     0.27200
C2231       C  0.68101182  0.72449512  0.99115624     0.35800
C2232       C  0.68206488  0.77865137  0.98565277     0.35800
C2233       C  0.82221052  0.72218265  0.99170105     0.35800
C2234       C  0.82290392  0.77652458  0.98742921     0.35800
C2235       C  0.73304647  0.65470241  0.02859066    -0.21700
C2236       C  0.76784499  0.65374792  0.02771128    -0.21700
C2237       C  0.73553763  0.85214343  0.01099906    -0.21700
C2238       C  0.77028488  0.85157543  0.01133023    -0.21700
C2239       C  0.65105305  0.73353623  0.97550316    -0.22800
C2240       C  0.65160229  0.76800342  0.97229050    -0.22800
C2241       C  0.85366343  0.73071100  0.97892598    -0.22800
C2242       C  0.85410119  0.76522490  0.97624202    -0.22800
C2243       C  0.68950341  0.69192119  0.00264867    -0.18100
C2244       C  0.81201607  0.68946422  0.00124230    -0.18100
C2245       C  0.81380569  0.81056870  0.99233669    -0.18100
C2246       C  0.69137674  0.81241682  0.99126252    -0.18100
H2247       H  0.71684731  0.63595996  0.03996120     0.14800
H2248       H  0.78365971  0.63421876  0.03833406     0.14800
H2249       H  0.71973809  0.87272256  0.01954883     0.14800
H2250       H  0.78645915  0.87166185  0.02019617     0.14800
H2251       H  0.63064567  0.71713407  0.96785921     0.13100
H2252       H  0.63168261  0.78353039  0.96192861     0.13100
H2253       H  0.87431522  0.71391319  0.97273018     0.13100
H2254       H  0.87515564  0.78032879  0.96769299     0.13100
H2255       H  0.75117024  0.71995054  0.98339703     0.26300
H2256       H  0.75230684  0.78001665  0.97641738     0.26300
C2257       C  0.84062097  0.83670049  0.99327578    -0.05300
C2258       C  0.83931933  0.86391196  0.97074252    -0.32700
C2259       C  0.86294472  0.89000100  0.97281289     0.36500
C2260       C  0.88886348  0.88852877  0.99701327    -0.05600
C2261       C  0.89140781  0.86040135  0.51950332    -0.32600
C2262       C  0.86710000  0.83493029  0.51933872     0.36400
H2263       H  0.81962947  0.86508455  0.95182605     0.16800
O2264       O  0.86130590  0.91615681  0.95032347    -0.60100
H2265       H  0.91165285  0.85944396  0.53784678     0.16800
O2266       O  0.86837825  0.81017396  0.54337834    -0.60200
H2267       H  0.88734181  0.79528270  0.53659523     0.43800
H2268       H  0.84457452  0.93209254  0.95999899     0.43800
C2269       C  0.88716869  0.61082926  0.00511208    -0.05300
C2270       C  0.85918772  0.60777752  0.98361885    -0.32700
C2271       C  0.83477157  0.63325903  0.98204471     0.36500
C2272       C  0.83769514  0.66203060  0.00269301    -0.05600
C2273       C  0.86521013  0.66422862  0.52681352    -0.32600
C2274       C  0.89046440  0.63951818  0.52703507     0.36400
H2275       H  0.85676376  0.58601204  0.96728846     0.16800
O2276       O  0.80828609  0.62996717  0.96001970    -0.60100
H2277       H  0.86799467  0.68627407  0.54269061     0.16800
O2278       O  0.91810995  0.64378244  0.54743662    -0.60200
H2279       H  0.91356008  0.62988493  0.56767759     0.43800
H2280       H  0.81424551  0.64423318  0.94041594     0.43800
C2281       C  0.66457371  0.83872185  0.99282799    -0.05300
C2282       C  0.66570091  0.86638587  0.97091058    -0.32700
C2283       C  0.64103248  0.89165798  0.97259548     0.36500
C2284       C  0.61442657  0.88926967  0.99615380    -0.05600
C2285       C  0.61429797  0.86337643  0.52189291    -0.32600
C2286       C  0.63927515  0.83837900  0.52108139     0.36400
H2287       H  0.68581259  0.86835224  0.95246996     0.16800
O2288       O  0.64292747  0.91836914  0.95081376    -0.60100
H2289       H  0.59443300  0.86193701  0.54063411     0.16800
O2290       O  0.63827157  0.81282250  0.54428325    -0.60200
H2291       H  0.65647393  0.81800490  0.56064850     0.43800
H2292       H  0.62821112  0.91221695  0.93154881     0.43800
C2293       C  0.61329397  0.61377764  0.00368300    -0.05300
C2294       C  0.60639087  0.64559857  0.51772960    -0.32700
C2295       C  0.63146979  0.67049636  0.51864270     0.36500
C2296       C  0.66291496  0.66522855  0.00390963    -0.05600
C2297       C  0.66865626  0.63471009  0.98702617    -0.32600
C2298       C  0.64473110  0.60890293  0.98759472     0.36400
H2299       H  0.58317824  0.64960657  0.53164861     0.16800
O2300       O  0.62680616  0.69857152  0.53837448    -0.60100
H2301       H  0.69206643  0.63074172  0.97338730     0.16800
O2302       O  0.65204884  0.57932935  0.97133342    -0.60200
H2303       H  0.66652865  0.56650933  0.98717025     0.43800
H2304       H  0.60782805  0.71113336  0.52797032     0.43800
C2305       C  0.83531990  0.50392652  0.84057210    -0.05300
C2306       C  0.86010758  0.97922261  0.83876130    -0.32700
C2307       C  0.88592783  0.97839789  0.86283473     0.36500
C2308       C  0.88517903  0.00067940  0.89049550    -0.05600
C2309       C  0.86049193  0.52699314  0.89158907    -0.32600
C2310       C  0.83563288  0.52828592  0.86642323     0.36400
H2311       H  0.86084979  0.96165327  0.81783418     0.16800
O2312       O  0.91132534  0.95513341  0.85958027    -0.60100
H2313       H  0.86074639  0.54607498  0.91114730     0.16800
O2314       O  0.81263076  0.55415171  0.86641571    -0.60200
H2315       H  0.79536639  0.54779148  0.88336022     0.43800
H2316       H  0.92682022  0.96458401  0.84237178     0.43800
C2317       C  0.60809937  0.00323709  0.88401385    -0.05300
C2318       C  0.60591082  0.98029606  0.85713414    -0.32700
C2319       C  0.63061814  0.97983062  0.83178394     0.36500
C2320       C  0.65998101  0.50553264  0.83404383    -0.05600
C2321       C  0.66057980  0.53078131  0.85875332    -0.32600
C2322       C  0.63604919  0.53174282  0.88414293     0.36400
H2323       H  0.58551712  0.96214323  0.85626963     0.16800
O2324       O  0.62892272  0.95609123  0.80665685    -0.60100
H2325       H  0.68029781  0.54967006  0.85841410     0.16800
O2326       O  0.63715793  0.55678061  0.90790555    -0.60200
H2327       H  0.62992793  0.57754337  0.89607126     0.43800
H2328       H  0.60952048  0.96285808  0.79238072     0.43800
C2329       C  0.61589636  0.49804829  0.60975182    -0.05300
C2330       C  0.64466160  0.51825619  0.60550680    -0.32700
C2331       C  0.66944609  0.51990143  0.63055886     0.36500
C2332       C  0.66633228  0.50021838  0.65986391    -0.05600
C2333       C  0.64017851  0.97452933  0.66057591    -0.32600
C2334       C  0.61458233  0.97403966  0.63631907     0.36400
H2335       H  0.64734637  0.53379827  0.58324907     0.16800
O2336       O  0.69632282  0.54127506  0.62650595    -0.60100
H2337       H  0.63963216  0.95642599  0.68096928     0.16800
O2338       O  0.58942231  0.95044490  0.63867690    -0.60200
H2339       H  0.59703011  0.93137537  0.62437489     0.43800
H2340       H  0.68796126  0.56365826  0.63386868     0.43800
C2341       C  0.89145071  0.50090638  0.61469918    -0.06200
C2342       C  0.89313995  0.98032530  0.64305612    -0.32700
C2343       C  0.86877481  0.98024153  0.66865040     0.36500
C2344       C  0.84136091  0.50133042  0.66542358    -0.05600
C2345       C  0.84000098  0.52448850  0.63876332    -0.32600
C2346       C  0.86469798  0.52431023  0.61343984     0.36400
H2347       H  0.91419872  0.96292227  0.64453249     0.16800
O2348       O  0.87168089  0.95784102  0.69479318    -0.60100
H2349       H  0.81970175  0.54278859  0.63766676     0.16800
O2350       O  0.86330194  0.54802148  0.58836894    -0.60200
H2351       H  0.84861470  0.53813127  0.57072282     0.43800
H2352       H  0.89101197  0.96594615  0.70845853     0.43800
C2353       C  0.99597019  0.66277389  0.84007303    -0.05300
C2354       C  0.51604266  0.66722515  0.86840580    -0.32700
C2355       C  0.51640575  0.64348657  0.89443585     0.36500
C2356       C  0.99632743  0.61422860  0.89165244    -0.05600
C2357       C  0.97546562  0.61013467  0.86338855    -0.32600
C2358       C  0.97468266  0.63445934  0.83804728     0.36400
H2359       H  0.53199785  0.68927817  0.87036893     0.16800
O2360       O  0.53639368  0.64900630  0.92213483    -0.60100
H2361       H  0.95932537  0.58822527  0.86119972     0.16800
O2362       O  0.95309777  0.63032818  0.81134139    -0.60200
H2363       H  0.93165512  0.64114382  0.81848391     0.43800
H2364       H  0.55945106  0.64205982  0.91519629     0.43800
C2365       C  0.99702517  0.83742495  0.83736437    -0.05300
C2366       C  0.51868773  0.83464213  0.86498617    -0.32700
C2367       C  0.51931568  0.85949481  0.89009350     0.36500
C2368       C  0.99813791  0.88795959  0.88760838    -0.05600
C2369       C  0.97733113  0.89131730  0.85915713    -0.32600
C2370       C  0.97606787  0.86600064  0.83456452     0.36400
H2371       H  0.53518830  0.81297445  0.86723415     0.16800
O2372       O  0.54132935  0.85608845  0.91655105    -0.60100
H2373       H  0.96142131  0.91325640  0.85639589     0.16800
O2374       O  0.95415824  0.86932896  0.80799750    -0.60200
H2375       H  0.93473337  0.85458252  0.81352664     0.43800
H2376       H  0.52957616  0.84137737  0.93295695     0.43800
C2377       C  0.99346961  0.83525117  0.66279989    -0.05300
C2378       C  0.51451846  0.83088041  0.63346800    -0.32700
C2379       C  0.51539665  0.85534346  0.60806464     0.36500
C2380       C  0.99548752  0.88552107  0.61216132    -0.05600
C2381       C  0.97499777  0.88963078  0.64087784    -0.32600
C2382       C  0.97358853  0.86462254  0.66587472     0.36400
H2383       H  0.52989613  0.80843929  0.63078389     0.16800
O2384       O  0.53587674  0.85024498  0.58061704    -0.60100
H2385       H  0.95972164  0.91211272  0.64376245     0.16800
O2386       O  0.95197307  0.86853487  0.69269292    -0.60200
H2387       H  0.96239877  0.88598721  0.70722656     0.43800
H2388       H  0.52203207  0.83708448  0.56448355     0.43800
C2389       C  0.99632954  0.61023150  0.61477834    -0.05300
C2390       C  0.97353003  0.60710611  0.64172763    -0.32700
C2391       C  0.97151825  0.63218343  0.66656521     0.36500
C2392       C  0.99307536  0.66036781  0.66501454    -0.05600
C2393       C  0.51497758  0.66312079  0.63753409    -0.32600
C2394       C  0.51649487  0.63846634  0.61242187     0.36400
H2395       H  0.95690187  0.58550819  0.64317863     0.16800
O2396       O  0.94864248  0.62887661  0.69234314    -0.60100
H2397       H  0.53204070  0.68438558  0.63630399     0.16800
O2398       O  0.53944438  0.64194726  0.58673474    -0.60200
H2399       H  0.55869797  0.62719817  0.59290676     0.43800
H2400       H  0.92823035  0.64118669  0.68473384     0.43800
loop_ 
_geom_bond_atom_site_label_1 
_geom_bond_atom_site_label_2 
_geom_bond_distance 
_geom_bond_site_symmetry_2 
_ccdc_geom_bond_type 
N1            C6   1.353   1_455  A
N1            C5   1.354   1_455  A
N1           H33   1.041       .  S
N2            C9   1.351   1_655  A
N2           C10   1.350   1_655  A
N3            C8   1.354       .  A
N3            C7   1.353       .  A
N3           H34   1.041   1_655  S
N4           C11   1.351   1_655  A
N4           C12   1.353   1_655  A
C5           C13   1.387       .  A
C5           C21   1.416       .  A
C6           C22   1.416   1_655  A
C6           C14   1.387       .  A
C7           C15   1.387       .  A
C7           C24   1.417       .  A
C8           C23   1.415       .  A
C8           C16   1.386       .  A
C9           C21   1.413   1_455  A
C9           C17   1.386       .  A
C10          C24   1.413   1_455  A
C10          C18   1.387       .  A
C11          C19   1.387       .  A
C11          C22   1.414       .  A
C12          C20   1.386       .  A
C12          C23   1.415   1_455  A
C13          C14   1.378       .  A
C13          H25   1.082       .  S
C14          H26   1.082       .  S
C15          C16   1.377       .  A
C15          H27   1.082       .  S
C16          H28   1.082       .  S
C17          C18   1.374       .  A
C17          H29   1.082       .  S
C18          H30   1.082       .  S
C19          C20   1.375       .  A
C19          H31   1.082       .  S
C20          H32   1.082       .  S
C21        C1453   1.494       .  S
C22        C1465   1.490       .  S
C23        C1477   1.495       .  S
C24        C1492   1.492       .  S
O35          C46   1.292       .  A
O35        Zr371   2.437       .  S
O36          C47   1.292       .  A
O36        Zr370   2.440   1_554  S
O37          C48   1.290       .  A
O37        Zr643   2.428   1_545  S
O38          C49   1.292       .  A
O38       Zr1843   2.435       .  S
O39         C649   1.295       .  A
O39        Zr373   2.451   1_554  S
O40         C648   1.293       .  A
O40        Zr372   2.442       .  S
O41          C47   1.294       .  A
O41         Zr43   2.447       .  S
O42          C46   1.294       .  A
O42        Zr643   2.446   1_545  S
Zr43        O637   2.437       .  S
Zr43       O1838   2.438       .  S
Zr43        O642   2.453       .  S
Zr43         O51   2.341       .  S
Zr43       O1244   2.343       .  S
Zr43        O645   2.337       .  S
Zr43       O1853   2.349       .  S
O44       Zr1243   2.345       .  S
O44       Zr1570   2.339   1_554  S
O44        Zr373   2.347   1_554  S
O45        Zr643   2.339   1_545  S
O45        Zr371   2.339       .  S
O45        Zr972   2.338       .  S
C46         C289   1.478       .  S
C47         C280   1.478       .  S
C48         C241   1.474       .  S
C48         O640   1.294       .  A
C49         C229   1.470       .  S
C49         O639   1.292   1_565  A
H50          O51   0.967       .  S
O51        Zr370   2.347   1_554  S
O51        Zr372   2.346       .  S
H52          O53   0.966       .  S
O53       Zr1843   2.349   1_545  S
O53       Zr1571   2.337       .  S
O53        Zr973   2.342   1_554  S
O54          C77   1.291       .  A
O54         Zr70   2.433       .  S
O55          C78   1.292       .  A
O55         Zr71   2.437       .  S
O56          C79   1.290       .  A
O56         Zr72   2.430       .  S
O57          C80   1.292       .  A
O57         Zr73   2.437       .  S
O58          C81   1.293       .  A
O58        Zr673   2.446       .  S
O59          C82   1.291       .  A
O59        Zr672   2.431   1_545  S
O60          C83   1.292       .  A
O60         Zr74   2.439       .  S
O61          C84   1.291       .  A
O61       Zr1274   2.431       .  S
O62          C83   1.290       .  A
O62         Zr72   2.430       .  S
O63          C84   1.293       .  A
O63         Zr73   2.440       .  S
O64          C79   1.292       .  A
O64         Zr70   2.437       .  S
O65          C82   1.292       .  A
O65         Zr71   2.437       .  S
O66          C81   1.295       .  A
O66       Zr1271   2.457   1_455  S
O67          C80   1.294       .  A
O67       Zr1270   2.448       .  S
O68          C77   1.294       .  A
O68         Zr74   2.450       .  S
O69          C78   1.294       .  A
O69        Zr674   2.449   1_545  S
Zr70        O336   2.433       .  S
Zr70       O1267   2.451       .  S
Zr70         O76   2.339       .  S
Zr70       O1544   2.336       .  S
Zr70        O351   2.349       .  S
Zr70       O1288   2.341       .  S
Zr71        O335   2.431       .  S
Zr71       O1266   2.456       .  S
Zr71         O86   2.347       .  S
Zr71        O345   2.340       .  S
Zr71       O1553   2.340       .  S
Zr71       O1275   2.337       .  S
Zr72        O340   2.444       .  S
Zr72        O659   2.437       .  S
Zr72         O76   2.341       .  S
Zr72        O945   2.329       .  S
Zr72        O351   2.344       .  S
Zr72        O686   2.336       .  S
Zr73        O339   2.437       .  S
Zr73        O658   2.433       .  S
Zr73         O88   2.342       .  S
Zr73        O344   2.345       .  S
Zr73        O953   2.343       .  S
Zr73        O675   2.337       .  S
Zr74       O1261   2.433       .  S
Zr74        O669   2.425       .  S
Zr74         O76   2.326       .  S
Zr74       O1875   2.344       .  S
Zr74       O1288   2.340       .  S
Zr74        O686   2.344       .  S
O75       Zr1271   2.337   1_455  S
O75        Zr673   2.335       .  S
O75       Zr1874   2.351   1_455  S
C77         C268   1.477       .  S
C78         C256   1.480       .  S
C79         C160   1.466       .  S
C80         C184   1.477       .  S
C81         C193   1.497       .  S
C82         C169   1.472       .  S
C83         C208   1.474       .  S
C84         C217   1.474       .  S
H85          O86   0.967       .  S
O86        Zr672   2.339   1_545  S
O86        Zr674   2.340   1_545  S
H87          O88   0.966       .  S
O88       Zr1270   2.334       .  S
O88       Zr1274   2.339       .  S
N89          C94   1.352   1_545  A
N89          C93   1.353   1_545  A
N89         H121   1.040       .  S
N90          C97   1.351       .  A
N90          C98   1.351       .  A
N91          C96   1.354   1_545  A
N91          C95   1.354   1_545  A
N91         H122   1.040       .  S
N92          C99   1.350   1_565  A
N92         C100   1.350   1_565  A
C93         C101   1.388       .  A
C93         C109   1.416   1_565  A
C94         C110   1.413   1_565  A
C94         C102   1.387       .  A
C95         C103   1.387       .  A
C95         C112   1.416   1_565  A
C96         C111   1.417       .  A
C96         C104   1.387       .  A
C97         C109   1.413       .  A
C97         C105   1.386       .  A
C98         C112   1.413       .  A
C98         C106   1.386       .  A
C99         C107   1.386       .  A
C99         C110   1.411       .  A
C100        C108   1.386       .  A
C100        C111   1.411   1_545  A
C101        C102   1.377       .  A
C101        H113   1.082       .  S
C102        H114   1.082       .  S
C103        C104   1.378       .  A
C103        H115   1.082       .  S
C104        H116   1.082       .  S
C105        C106   1.375       .  A
C105        H117   1.082       .  S
C106        H118   1.082       .  S
C107        C108   1.372       .  A
C107        H119   1.082       .  S
C108        H120   1.082       .  S
C109        C244   1.490       .  S
C110        C232   1.485   1_545  S
C111        C220   1.491       .  S
C112        C205   1.490       .  S
N123        C128   1.353       .  A
N123        C127   1.355       .  A
N123        H155   1.041       .  S
N124        C131   1.354       .  A
N124        C132   1.352       .  A
N125        C130   1.353       .  A
N125        C129   1.352       .  A
N125        H156   1.041       .  S
N126        C133   1.351       .  A
N126        C134   1.352       .  A
C127        C135   1.388       .  A
C127        C143   1.421       .  A
C128        C144   1.416       .  A
C128        C136   1.387       .  A
C129        C137   1.387       .  A
C129        C146   1.413       .  A
C130        C145   1.413       .  A
C130        C138   1.387       .  A
C131        C143   1.418       .  A
C131        C139   1.386       .  A
C132        C146   1.414       .  A
C132        C140   1.384       .  A
C133        C141   1.388       .  A
C133        C144   1.414       .  A
C134        C142   1.385       .  A
C134        C145   1.412       .  A
C135        C136   1.379       .  A
C135        H147   1.082       .  S
C136        H148   1.083       .  S
C137        C138   1.374       .  A
C137        H149   1.082       .  S
C138        H150   1.082       .  S
C139        C140   1.377       .  A
C139        H151   1.082       .  S
C140        H152   1.082       .  S
C141        C142   1.373       .  A
C141        H153   1.082       .  S
C142        H154   1.082       .  S
C143        C196   1.508       .  S
C144        C172   1.490       .  S
C145        C157   1.488       .  S
C146        C181   1.492       .  S
C157        C158   1.405       .  A
C157        C462   1.408       .  A
C158        C159   1.401       .  A
C158        H163   1.084       .  S
C159        C160   1.408       .  A
C159        O164   1.373       .  S
C160        C461   1.400       .  A
C161        C162   1.399       .  A
C161        C460   1.402   1_554  A
C161        H165   1.084       .  S
C162        C457   1.409   1_554  A
C162        O166   1.372       .  S
O164        H168   0.992       .  S
O166        H167   0.992       .  S
C169        C170   1.403       .  A
C169        C474   1.408       .  A
C170        C171   1.400       .  A
C170        H175   1.084       .  S
C171        C172   1.409       .  A
C171        O176   1.372       .  S
C172        C473   1.405       .  A
C173        C174   1.398       .  A
C173        C472   1.404       .  A
C173        H177   1.084       .  S
C174        C469   1.409       .  A
C174        O178   1.372       .  S
O176        H180   0.992       .  S
O178        H179   0.992       .  S
C181        C182   1.406       .  A
C181        C486   1.408       .  A
C182        C183   1.403       .  A
C182        H187   1.084       .  S
C183        C184   1.410       .  A
C183        O188   1.372       .  S
C184        C485   1.403       .  A
C185        C186   1.401       .  A
C185        C484   1.404   1_554  A
C185        H189   1.083       .  S
C186        C481   1.408   1_554  A
C186        O190   1.372       .  S
O188        H192   0.992       .  S
O190        H191   0.992       .  S
C193        C198   1.412       .  A
C193        C494   1.407       .  A
C194        C195   1.408       .  A
C194        C493   1.407       .  A
C194        H199   1.083       .  S
C195        C496   1.413       .  A
C195        O200   1.373       .  S
C196        C197   1.405       .  A
C196        C495   1.414       .  A
C197        C198   1.401       .  A
C197        H201   1.084       .  S
C198        O202   1.367       .  S
O200        H204   0.992       .  S
O202        H203   0.992       .  S
C205        C210   1.408       .  A
C205        C806   1.402   1_545  A
C206        C207   1.396       .  A
C206        C805   1.402       .  A
C206        H211   1.084       .  S
C207        C208   1.406       .  A
C207        O212   1.369       .  S
C208        C809   1.404       .  A
C209        C210   1.405       .  A
C209        C808   1.405       .  A
C209        H213   1.084       .  S
C210        O214   1.371       .  S
O212        H216   0.992       .  S
O214        H215   0.992       .  S
C217        C218   1.404       .  A
C217        C822   1.406       .  A
C218        C219   1.400       .  A
C218        H223   1.084       .  S
C219        C820   1.409       .  A
C219        O224   1.373       .  S
C220        C221   1.400   1_565  A
C220        C819   1.411       .  A
C221        C222   1.398       .  A
C221        H225   1.084       .  S
C222        C817   1.406       .  A
C222        O226   1.368       .  S
O224        H228   0.992       .  S
O226        H227   0.992       .  S
C229        C230   1.403   1_565  A
C229        C834   1.408       .  A
C230        C231   1.399       .  A
C230        H235   1.084       .  S
C231        C232   1.409   1_545  A
C231        O236   1.372       .  S
C232        C833   1.403       .  A
C233        C234   1.398       .  A
C233        C832   1.404       .  A
C233        H237   1.084       .  S
C234        C829   1.409       .  A
C234        O238   1.372       .  S
O236        H240   0.992       .  S
O238        H239   0.991       .  S
C241        C246   1.408       .  A
C241        C842   1.403   1_545  A
C242        C243   1.402       .  A
C242        C841   1.403       .  A
C242        H247   1.084       .  S
C243        C844   1.409       .  A
C243        O248   1.372       .  S
C244        C245   1.405       .  A
C244        C843   1.409   1_545  A
C245        C246   1.401       .  A
C245        H249   1.084       .  S
C246        O250   1.372       .  S
O248        H252   0.992       .  S
O250        H251   0.991       .  S
C253        C258   1.411       .  A
C253       C1454   1.404       .  A
C253       C1221   1.493       .  S
C254        C255   1.401       .  A
C254       C1453   1.404   1_455  A
C254        H259   1.084       .  S
C255       C1456   1.411   1_455  A
C255        O260   1.372       .  S
C256        C257   1.404       .  A
C256       C1455   1.411       .  A
C257        C258   1.401       .  A
C257        H261   1.084       .  S
C258        O262   1.372       .  S
O260        H264   0.992       .  S
O262        H263   0.992       .  S
C265        C270   1.407       .  A
C265       C1466   1.403       .  A
C265       C1222   1.486       .  S
C266        C267   1.402       .  A
C266       C1465   1.403       .  A
C266        H271   1.084       .  S
C267       C1468   1.410       .  A
C267        O272   1.372       .  S
C268        C269   1.403       .  A
C268       C1467   1.409       .  A
C269        C270   1.399       .  A
C269        H273   1.078       .  S
C270        O274   1.372       .  S
O272        H276   0.992       .  S
O274        H275   0.992       .  S
C277        C282   1.407       .  A
C277       C1478   1.405       .  A
C277       C1223   1.490       .  S
C278        C279   1.404       .  A
C278       C1477   1.406   1_455  A
C278        H283   1.084       .  S
C279       C1480   1.410       .  A
C279        O284   1.371       .  S
C280        C281   1.404       .  A
C280       C1479   1.409       .  A
C281        C282   1.401       .  A
C281        H285   1.084       .  S
C282        O286   1.372       .  S
O284        H288   0.992       .  S
O286        H287   0.992       .  S
C289        C290   1.405       .  A
C289       C1494   1.410       .  A
C290        C291   1.402       .  A
C290        H295   1.084       .  S
C291        C292   1.410       .  A
C291        O296   1.372       .  S
C292       C1493   1.402       .  A
C292       C1224   1.490       .  S
C293        C294   1.398       .  A
C293       C1492   1.403   1_455  A
C293        H297   1.084       .  S
C294       C1489   1.409   1_455  A
C294        O298   1.371       .  S
O296        H300   0.992       .  S
O298        H299   0.992       .  S
N301        C306   1.353   1_455  A
N301        C305   1.355   1_455  A
N301        H333   1.040       .  S
N302        C309   1.352   1_655  A
N302        C310   1.351   1_655  A
N303        C308   1.354       .  A
N303        C307   1.352       .  A
N303        H334   1.040   1_655  S
N304        C311   1.350   1_655  A
N304        C312   1.353   1_655  A
C305        C313   1.386       .  A
C305        C321   1.416       .  A
C306        C322   1.417   1_655  A
C306        C314   1.388       .  A
C307        C315   1.387       .  A
C307        C324   1.415       .  A
C308        C323   1.415       .  A
C308        C316   1.387       .  A
C309        C321   1.413   1_455  A
C309        C317   1.386       .  A
C310        C324   1.413   1_455  A
C310        C318   1.387       .  A
C311        C319   1.387       .  A
C311        C322   1.414       .  A
C312        C320   1.386       .  A
C312        C323   1.415   1_455  A
C313        C314   1.377       .  A
C313        H325   1.082       .  S
C314        H326   1.082       .  S
C315        C316   1.376       .  A
C315        H327   1.082       .  S
C316        H328   1.082       .  S
C317        C318   1.374       .  A
C317        H329   1.082       .  S
C318        H330   1.082       .  S
C319        C320   1.375       .  A
C319        H331   1.082       .  S
C320        H332   1.082       .  S
C321       C1753   1.495       .  S
C322       C1765   1.490       .  S
C323       C1777   1.494       .  S
C324       C1792   1.488       .  S
O335        C346   1.291       .  A
O336        C347   1.291       .  A
O337        C348   1.289   1_565  A
O337       Zr943   2.422       .  S
O338        C349   1.293       .  A
O338      Zr2143   2.442       .  S
O339        C949   1.292       .  A
O340        C948   1.293       .  A
O341        C347   1.294       .  A
O341       Zr343   2.451       .  S
O342        C346   1.296       .  A
O342       Zr943   2.458   1_545  S
Zr343       O937   2.439       .  S
Zr343      O2138   2.442       .  S
Zr343       O942   2.446       .  S
Zr343      O1544   2.341       .  S
Zr343       O945   2.337       .  S
Zr343      O2153   2.352       .  S
Zr343       O351   2.339       .  S
O344      Zr1543   2.341       .  S
O344      Zr1270   2.338       .  S
O345       Zr943   2.341   1_545  S
O345       Zr672   2.337   1_545  S
C346        C589   1.479       .  S
C347        C580   1.479       .  S
C348        C541   1.470       .  S
C348        O940   1.294       .  A
C349        C529   1.473       .  S
C349        O939   1.292   1_565  A
H350        O351   0.965       .  S
H352        O353   0.965       .  S
O353      Zr2143   2.351   1_545  S
O353      Zr1271   2.337   1_455  S
O353       Zr673   2.342       .  S
O354        C377   1.291       .  A
O354       Zr370   2.434       .  S
O355        C378   1.292       .  A
O355       Zr371   2.436   1_556  S
O356        C379   1.292       .  A
O356       Zr372   2.438   1_556  S
O357        C380   1.294       .  A
O357       Zr373   2.447       .  S
O358        C381   1.294   1_556  A
O358       Zr973   2.450       .  S
O359        C382   1.291       .  A
O359       Zr972   2.431       .  S
O360        C383   1.293       .  A
O360       Zr374   2.443       .  S
O361        C384   1.291       .  A
O361      Zr1574   2.430   1_455  S
O362        C383   1.291       .  A
O362       Zr372   2.436   1_556  S
O363        C384   1.294       .  A
O363       Zr373   2.452       .  S
O364        C379   1.292       .  A
O364       Zr370   2.434       .  S
O365        C382   1.291       .  A
O365       Zr371   2.432       .  S
O366        C381   1.294       .  A
O366      Zr1571   2.447       .  S
O367        C380   1.293       .  A
O367      Zr1570   2.446       .  S
O368        C377   1.294       .  A
O368       Zr374   2.449       .  S
O369        C378   1.294       .  A
O369       Zr974   2.448       .  S
Zr370      O1567   2.446       .  S
Zr370      O1244   2.335   1_556  S
Zr370       O376   2.342       .  S
Zr370      O1588   2.342       .  S
Zr371      O1566   2.449       .  S
Zr371      O1253   2.335       .  S
Zr371      O1575   2.338   1_554  S
Zr371       O386   2.348   1_554  S
Zr372       O959   2.443       .  S
Zr372       O645   2.336       .  S
Zr372       O376   2.340   1_554  S
Zr372       O986   2.336   1_554  S
Zr373       O958   2.430   1_556  S
Zr373       O653   2.343   1_556  S
Zr373       O975   2.339       .  S
Zr373       O388   2.347       .  S
Zr374      O1561   2.430       .  S
Zr374       O969   2.435       .  S
Zr374      O2175   2.348       .  S
Zr374       O376   2.330       .  S
Zr374      O1588   2.345       .  S
Zr374       O986   2.338       .  S
O375      Zr1571   2.340   1_556  S
O375       Zr973   2.334       .  S
O375      Zr2174   2.348   1_455  S
C377        C568   1.478       .  S
C378        C556   1.477       .  S
C379        C460   1.470       .  S
C380        C484   1.479       .  S
C381        C493   1.495       .  S
C382        C469   1.472       .  S
C383        C508   1.475       .  S
C384        C517   1.473       .  S
H385        O386   0.968       .  S
O386       Zr972   2.338   1_556  S
O386       Zr974   2.338       .  S
H387        O388   0.966       .  S
O388      Zr1570   2.341       .  S
O388      Zr1574   2.346   1_455  S
N389        C394   1.353   1_545  A
N389        C393   1.352   1_545  A
N389        H421   1.040       .  S
N390        C397   1.350       .  A
N390        C398   1.350       .  A
N391        C396   1.353   1_545  A
N391        C395   1.354   1_545  A
N391        H422   1.040       .  S
N392        C399   1.349       .  A
N392        C400   1.348       .  A
C393        C401   1.388       .  A
C393        C409   1.415   1_565  A
C394        C410   1.413   1_565  A
C394        C402   1.386       .  A
C395        C403   1.386       .  A
C395        C412   1.416   1_565  A
C396        C411   1.418   1_565  A
C396        C404   1.388       .  A
C397        C409   1.411       .  A
C397        C405   1.386       .  A
C398        C412   1.411       .  A
C398        C406   1.386       .  A
C399        C407   1.387       .  A
C399        C410   1.409       .  A
C400        C408   1.387       .  A
C400        C411   1.409       .  A
C401        C402   1.378       .  A
C401        H413   1.082       .  S
C402        H414   1.082       .  S
C403        C404   1.379       .  A
C403        H415   1.082       .  S
C404        H416   1.082       .  S
C405        C406   1.374       .  A
C405        H417   1.082       .  S
C406        H418   1.082       .  S
C407        C408   1.372       .  A
C407        H419   1.082       .  S
C408        H420   1.082       .  S
C409        C544   1.486       .  S
C410        C532   1.485   1_545  S
C411        C520   1.487       .  S
C412        C505   1.490       .  S
N423        C428   1.351   1_556  A
N423        C427   1.353   1_556  A
N423        H455   1.042       .  S
N424        C431   1.353       .  A
N424        C432   1.352       .  A
N425        C430   1.352       .  A
N425        C429   1.352       .  A
N425        H456   1.041       .  S
N426        C433   1.349       .  A
N426        C434   1.349       .  A
C427        C435   1.388       .  A
C427        C443   1.419   1_554  A
C428        C444   1.414   1_554  A
C428        C436   1.387       .  A
C429        C437   1.387   1_556  A
C429        C446   1.412       .  A
C430        C445   1.414       .  A
C430        C438   1.387   1_556  A
C431        C443   1.416       .  A
C431        C439   1.386       .  A
C432        C446   1.412       .  A
C432        C440   1.384       .  A
C433        C441   1.387       .  A
C433        C444   1.411       .  A
C434        C442   1.386       .  A
C434        C445   1.409       .  A
C435        C436   1.380       .  A
C435        H447   1.082       .  S
C436        H448   1.083       .  S
C437        C438   1.376       .  A
C437        H449   1.082       .  S
C438        H450   1.082       .  S
C439        C440   1.377       .  A
C439        H451   1.082       .  S
C440        H452   1.082       .  S
C441        C442   1.373       .  A
C441        H453   1.082       .  S
C442        H454   1.082       .  S
C443        C496   1.504   1_556  S
C444        C472   1.486   1_556  S
C445        C457   1.486       .  S
C446        C481   1.491       .  S
C457        C458   1.403       .  A
C458        C459   1.400       .  A
C458        H463   1.084       .  S
C459        C460   1.408       .  A
C459        O464   1.373       .  S
C461        C462   1.398       .  A
C461        H465   1.084       .  S
C462        O466   1.372       .  S
O464        H468   0.992       .  S
O466        H467   0.992       .  S
C469        C470   1.404   1_554  A
C470        C471   1.398       .  A
C470        H475   1.084       .  S
C471        C472   1.408   1_556  A
C471        O476   1.372       .  S
C473        C474   1.399       .  A
C473        H477   1.083       .  S
C474        O478   1.372       .  S
O476        H480   0.992       .  S
O478        H479   0.992       .  S
C481        C482   1.405       .  A
C482        C483   1.403       .  A
C482        H487   1.084       .  S
C483        C484   1.410       .  A
C483        O488   1.372       .  S
C485        C486   1.399       .  A
C485        H489   1.083       .  S
C486        O490   1.371       .  S
O488        H492   0.992       .  S
O490        H491   0.992       .  S
C493        C498   1.412   1_554  A
C494        C495   1.409       .  A
C494        H499   1.083       .  S
C495        O500   1.373       .  S
C496        C497   1.404   1_554  A
C497        C498   1.400       .  A
C497        H501   1.084       .  S
C498        O502   1.367       .  S
O500        H504   0.992       .  S
O502        H503   0.992       .  S
C505       C1106   1.403   1_545  A
C505        C510   1.408       .  A
C506       C1105   1.403       .  A
C506        C507   1.398       .  A
C506        H511   1.084       .  S
C507        C508   1.407       .  A
C507        O512   1.370       .  S
C508       C1109   1.404       .  A
C509       C1108   1.404       .  A
C509        C510   1.404       .  A
C509        H513   1.084       .  S
C510        O514   1.371       .  S
O512        H516   0.992       .  S
O514        H515   0.991       .  S
C517        C518   1.403       .  A
C517       C1122   1.407       .  A
C518        C519   1.399       .  A
C518        H523   1.084       .  S
C519       C1120   1.408       .  A
C519        O524   1.372       .  S
C520       C1119   1.411   1_545  A
C520        C521   1.399       .  A
C521        C522   1.396       .  A
C521        H525   1.084       .  S
C522       C1117   1.405       .  A
C522        O526   1.367       .  S
O524        H528   0.992       .  S
O526        H527   0.991       .  S
C529        C530   1.404   1_565  A
C529       C1134   1.408       .  A
C530        C531   1.400       .  A
C530        H535   1.084       .  S
C531        C532   1.407   1_545  A
C531        O536   1.372       .  S
C532       C1133   1.404       .  A
C533       C1132   1.404       .  A
C533        C534   1.398       .  A
C533        H537   1.084       .  S
C534       C1129   1.410       .  A
C534        O538   1.372       .  S
O536        H540   0.992       .  S
O538        H539   0.992       .  S
C541       C1142   1.404   1_545  A
C541        C546   1.406       .  A
C542       C1141   1.404       .  A
C542        C543   1.402       .  A
C542        H547   1.084       .  S
C543       C1144   1.408       .  A
C543        O548   1.372       .  S
C544       C1143   1.409   1_545  A
C544        C545   1.403       .  A
C545        C546   1.398       .  A
C545        H549   1.084       .  S
C546        O550   1.372       .  S
O548        H552   0.992       .  S
O550        H551   0.991       .  S
C553       C1754   1.405       .  A
C553        C558   1.410       .  A
C553       C1521   1.494       .  S
C554       C1753   1.405   1_455  A
C554        C555   1.403       .  A
C554        H559   1.084       .  S
C555       C1756   1.410   1_455  A
C555        O560   1.372       .  S
C556       C1755   1.410       .  A
C556        C557   1.403       .  A
C557        C558   1.400       .  A
C557        H561   1.084       .  S
C558        O562   1.372       .  S
O560        H564   0.992       .  S
O562        H563   0.992       .  S
C565       C1766   1.401       .  A
C565        C570   1.410       .  A
C565       C1522   1.487       .  S
C566       C1765   1.402       .  A
C566        C567   1.400       .  A
C566        H571   1.084       .  S
C567       C1768   1.410       .  A
C567        O572   1.372       .  S
C568       C1767   1.409       .  A
C568        C569   1.404       .  A
C569        C570   1.401       .  A
C569        H573   1.080       .  S
C570        O574   1.372       .  S
O572        H576   0.992       .  S
O574        H575   0.992       .  S
C577       C1778   1.404       .  A
C577        C582   1.409       .  A
C577       C1523   1.493       .  S
C578       C1777   1.406   1_455  A
C578        C579   1.402       .  A
C578        H583   1.084       .  S
C579       C1780   1.409       .  A
C579        O584   1.372       .  S
C580       C1779   1.409       .  A
C580        C581   1.404       .  A
C581        C582   1.403       .  A
C581        H585   1.084       .  S
C582        O586   1.372       .  S
O584        H588   0.992       .  S
O586        H587   0.992       .  S
C589        C590   1.405       .  A
C589       C1794   1.409       .  A
C590        C591   1.403       .  A
C590        H595   1.084       .  S
C591        C592   1.411       .  A
C591        O596   1.372       .  S
C592       C1793   1.402       .  A
C592       C1524   1.490       .  S
C593       C1792   1.402   1_455  A
C593        C594   1.397       .  A
C593        H597   1.084       .  S
C594       C1789   1.409   1_455  A
C594        O598   1.372       .  S
O596        H600   0.992       .  S
O598        H599   0.992       .  S
N601        C606   1.352       .  A
N601        C605   1.351       .  A
N601        H633   1.041   1_655  S
N602        C609   1.350   1_655  A
N602        C610   1.349   1_655  A
N603        C608   1.354       .  A
N603        C607   1.354       .  A
N603        H634   1.040   1_655  S
N604        C611   1.352   1_655  A
N604        C612   1.352   1_655  A
C605        C613   1.387       .  A
C605        C621   1.411       .  A
C606        C622   1.415       .  A
C606        C614   1.388       .  A
C607        C615   1.387       .  A
C607        C624   1.417       .  A
C608        C623   1.418       .  A
C608        C616   1.387       .  A
C609        C621   1.410   1_455  A
C609        C617   1.386       .  A
C610        C624   1.410   1_455  A
C610        C618   1.387       .  A
C611        C619   1.386       .  A
C611        C622   1.415   1_455  A
C612        C620   1.386       .  A
C612        C623   1.415   1_455  A
C613        C614   1.376       .  A
C613        H625   1.082       .  S
C614        H626   1.082       .  S
C615        C616   1.378       .  A
C615        H627   1.082       .  S
C616        H628   1.082       .  S
C617        C618   1.373       .  A
C617        H629   1.082       .  S
C618        H630   1.082       .  S
C619        C620   1.375       .  A
C619        H631   1.082       .  S
C620        H632   1.082       .  S
C621       C2053   1.484       .  S
C622       C2065   1.495       .  S
C623       C2077   1.498       .  S
C624       C2092   1.489       .  S
O635        C646   1.290       .  A
O635       Zr971   2.426       .  S
O636        C647   1.293       .  A
O636       Zr970   2.446   1_554  S
O637        C648   1.292       .  A
O638        C649   1.292       .  A
O638      Zr1243   2.436       .  S
O639       Zr973   2.438   1_554  S
O640       Zr972   2.447       .  S
O641        C647   1.295       .  A
O641       Zr643   2.456       .  S
O642        C646   1.295       .  A
Zr643      O1238   2.436       .  S
Zr643      O1844   2.343       .  S
Zr643      O1253   2.349   1_565  S
Zr643       O651   2.340       .  S
O644      Zr1843   2.340       .  S
O644      Zr2170   2.338   1_554  S
O644       Zr973   2.352   1_564  S
O645       Zr971   2.339       .  S
C646        C889   1.475       .  S
C647        C880   1.486       .  S
C648        C841   1.474       .  S
C649        C829   1.477       .  S
H650        O651   0.964       .  S
O651       Zr970   2.346   1_554  S
O651       Zr972   2.346   1_565  S
H652        O653   0.968       .  S
O653      Zr1243   2.347       .  S
O653      Zr2171   2.336   1_455  S
O654        C677   1.290       .  A
O654       Zr670   2.429       .  S
O655        C678   1.292       .  A
O655       Zr671   2.439       .  S
O656        C679   1.292       .  A
O656       Zr672   2.437       .  S
O657        C680   1.291       .  A
O657       Zr673   2.433   1_565  S
O658        C681   1.291       .  A
O659        C682   1.292       .  A
O660        C683   1.293   1_565  A
O660       Zr674   2.446       .  S
O661        C684   1.291       .  A
O661      Zr1874   2.431   1_455  S
O662        C683   1.293       .  A
O662       Zr672   2.446   1_545  S
O663        C684   1.295       .  A
O663       Zr673   2.454       .  S
O664        C679   1.291       .  A
O664       Zr670   2.434       .  S
O665        C682   1.291       .  A
O665       Zr671   2.432       .  S
O666        C681   1.293       .  A
O666      Zr1871   2.443       .  S
O667        C680   1.296       .  A
O667      Zr1870   2.456       .  S
O668        C677   1.295       .  A
O668       Zr674   2.452       .  S
O669        C678   1.290       .  A
Zr670       O936   2.436       .  S
Zr670      O1867   2.450       .  S
Zr670      O2144   2.335       .  S
Zr670       O951   2.343       .  S
Zr670       O676   2.343       .  S
Zr670      O1888   2.342       .  S
Zr671       O935   2.433       .  S
Zr671      O1866   2.443       .  S
Zr671       O945   2.335       .  S
Zr671      O2153   2.342       .  S
Zr671      O1875   2.335       .  S
Zr671       O686   2.344       .  S
Zr672       O940   2.447   1_565  S
Zr672       O951   2.345       .  S
Zr672       O676   2.337       .  S
Zr673       O939   2.439       .  S
Zr673       O944   2.351   1_545  S
Zr673       O688   2.344   1_545  S
Zr674      O1861   2.429       .  S
Zr674      O1275   2.351   1_565  S
Zr674       O676   2.332       .  S
Zr674      O1888   2.348       .  S
O675      Zr1871   2.340       .  S
O675      Zr1274   2.348       .  S
C677        C868   1.484       .  S
C678        C856   1.468       .  S
C679        C760   1.471       .  S
C680        C784   1.482       .  S
C681        C793   1.485       .  S
C682        C769   1.476       .  S
C683        C808   1.479       .  S
C684        C817   1.479       .  S
H685        O686   0.968       .  S
H687        O688   0.964       .  S
O688      Zr1870   2.342       .  S
O688      Zr1874   2.348   1_465  S
N689        C694   1.354       .  A
N689        C693   1.352       .  A
N689        H721   1.039       .  S
N690        C697   1.351       .  A
N690        C698   1.351       .  A
N691        C696   1.351       .  A
N691        C695   1.352       .  A
N691        H722   1.040       .  S
N692        C699   1.349       .  A
N692        C700   1.349       .  A
C693        C701   1.388       .  A
C693        C709   1.417       .  A
C694        C710   1.415       .  A
C694        C702   1.386       .  A
C695        C703   1.387       .  A
C695        C712   1.414       .  A
C696        C711   1.415       .  A
C696        C704   1.388       .  A
C697        C709   1.413       .  A
C697        C705   1.386       .  A
C698        C712   1.414       .  A
C698        C706   1.387       .  A
C699        C707   1.385       .  A
C699        C710   1.408       .  A
C700        C708   1.386       .  A
C700        C711   1.409       .  A
C701        C702   1.378       .  A
C701        H713   1.082       .  S
C702        H714   1.082       .  S
C703        C704   1.378       .  A
C703        H715   1.082       .  S
C704        H716   1.083       .  S
C705        C706   1.374       .  A
C705        H717   1.082       .  S
C706        H718   1.082       .  S
C707        C708   1.371       .  A
C707        H719   1.082       .  S
C708        H720   1.082       .  S
C709        C844   1.490       .  S
C710        C832   1.488       .  S
C711        C820   1.485       .  S
C712        C805   1.489       .  S
N723        C728   1.352       .  A
N723        C727   1.352       .  A
N723        H755   1.041       .  S
N724        C731   1.349       .  A
N724        C732   1.350       .  A
N725        C730   1.350       .  A
N725        C729   1.354       .  A
N725        H756   1.042       .  S
N726        C733   1.352       .  A
N726        C734   1.351       .  A
C727        C735   1.388       .  A
C727        C743   1.417       .  A
C728        C744   1.414       .  A
C728        C736   1.387       .  A
C729        C737   1.386       .  A
C729        C746   1.412       .  A
C730        C745   1.413       .  A
C730        C738   1.388       .  A
C731        C743   1.411       .  A
C731        C739   1.387       .  A
C732        C746   1.408       .  A
C732        C740   1.384       .  A
C733        C741   1.387       .  A
C733        C744   1.415       .  A
C734        C742   1.386       .  A
C734        C745   1.414       .  A
C735        C736   1.378       .  A
C735        H747   1.082       .  S
C736        H748   1.083       .  S
C737        C738   1.376       .  A
C737        H749   1.082       .  S
C738        H750   1.082       .  S
C739        C740   1.375       .  A
C739        H751   1.082       .  S
C740        H752   1.082       .  S
C741        C742   1.375       .  A
C741        H753   1.082       .  S
C742        H754   1.082       .  S
C743        C796   1.493       .  S
C744        C772   1.492       .  S
C745        C757   1.488       .  S
C746        C781   1.493       .  S
C757        C758   1.406       .  A
C757       C1062   1.408       .  A
C758        C759   1.401       .  A
C758        H763   1.084       .  S
C759        C760   1.409       .  A
C759        O764   1.372       .  S
C760       C1061   1.401       .  A
C761       C1060   1.402   1_554  A
C761        C762   1.399       .  A
C761        H765   1.084       .  S
C762       C1057   1.408   1_554  A
C762        O766   1.372       .  S
O764        H768   0.992       .  S
O766        H767   0.992       .  S
C769        C770   1.404       .  A
C769       C1074   1.410       .  A
C770        C771   1.399       .  A
C770        H775   1.084       .  S
C771        C772   1.411       .  A
C771        O776   1.372       .  S
C772       C1073   1.404       .  A
C773       C1072   1.405       .  A
C773        C774   1.401       .  A
C773        H777   1.083       .  S
C774       C1069   1.411       .  A
C774        O778   1.372       .  S
O776        H780   0.991       .  S
O778        H779   0.992       .  S
C781        C782   1.404       .  A
C781       C1086   1.411       .  A
C782        C783   1.400       .  A
C782        H787   1.084       .  S
C783        C784   1.412       .  A
C783        O788   1.372       .  S
C784       C1085   1.404       .  A
C785       C1084   1.404   1_554  A
C785        C786   1.402       .  A
C785        H789   1.083       .  S
C786       C1081   1.409   1_554  A
C786        O790   1.372       .  S
O788        H792   0.992       .  S
O790        H791   0.992       .  S
C793       C1094   1.405       .  A
C793        C798   1.411       .  A
C794       C1093   1.406       .  A
C794        C795   1.406       .  A
C794        H799   1.083       .  S
C795       C1096   1.413       .  A
C795        O800   1.374       .  S
C796       C1095   1.413       .  A
C796        C797   1.400       .  A
C797        C798   1.394       .  A
C797        H801   1.084       .  S
C798        O802   1.367       .  S
O800        H804   0.992       .  S
O802        H803   0.992       .  S
C805        C810   1.410       .  A
C806        C807   1.401       .  A
C806        H811   1.084       .  S
C807        C808   1.408   1_565  A
C807        O812   1.370       .  S
C809        C810   1.402       .  A
C809        H813   1.084       .  S
C810        O814   1.372       .  S
O812        H816   0.991       .  S
O814        H815   0.992       .  S
C817        C818   1.405   1_545  A
C818        C819   1.404       .  A
C818        H823   1.084       .  S
C819        O824   1.372       .  S
C820        C821   1.400       .  A
C821        C822   1.395       .  A
C821        H825   1.084       .  S
C822        O826   1.367       .  S
O824        H828   0.992       .  S
O826        H827   0.992       .  S
C829        C830   1.405       .  A
C830        C831   1.403       .  A
C830        H835   1.084       .  S
C831        C832   1.408       .  A
C831        O836   1.372       .  S
C833        C834   1.397       .  A
C833        H837   1.084       .  S
C834        O838   1.372       .  S
O836        H840   0.992       .  S
O838        H839   0.992       .  S
C841        C846   1.408       .  A
C842        C843   1.400       .  A
C842        H847   1.084       .  S
C843        O848   1.373       .  S
C844        C845   1.404       .  A
C845        C846   1.400       .  A
C845        H849   1.084       .  S
C846        O850   1.372       .  S
O848        H852   0.992       .  S
O850        H851   0.991       .  S
C853       C2054   1.403       .  A
C853        C858   1.409       .  A
C853       C1821   1.485       .  S
C854       C2053   1.404   1_455  A
C854        C855   1.398       .  A
C854        H859   1.084       .  S
C855       C2056   1.408   1_455  A
C855        O860   1.372       .  S
C856       C2055   1.407       .  A
C856        C857   1.403       .  A
C857        C858   1.396       .  A
C857        H861   1.084       .  S
C858        O862   1.372       .  S
O860        H864   0.992       .  S
O862        H863   0.992       .  S
C865       C2066   1.406       .  A
C865        C870   1.411       .  A
C865       C1822   1.498       .  S
C866       C2065   1.405   1_455  A
C866        C867   1.400       .  A
C866        H871   1.084       .  S
C867       C2068   1.411   1_455  A
C867        O872   1.372       .  S
C868       C2067   1.412       .  A
C868        C869   1.404       .  A
C869        C870   1.399       .  A
C869        H873   1.080       .  S
C870        O874   1.372       .  S
O872        H876   0.992       .  S
O874        H875   0.992       .  S
C877       C2078   1.405       .  A
C877        C882   1.412       .  A
C877       C1823   1.500       .  S
C878       C2077   1.405   1_455  A
C878        C879   1.402       .  A
C878        H883   1.084       .  S
C879       C2080   1.410   1_455  A
C879        O884   1.371       .  S
C880       C2079   1.410       .  A
C880        C881   1.406       .  A
C881        C882   1.406       .  A
C881        H885   1.084       .  S
C882        O886   1.373       .  S
O884        H888   0.992       .  S
O886        H887   0.992       .  S
C889        C890   1.403       .  A
C889       C2094   1.409       .  A
C890        C891   1.402       .  A
C890        H895   1.084       .  S
C891        C892   1.411       .  A
C891        O896   1.372       .  S
C892       C2093   1.401       .  A
C892       C1824   1.489       .  S
C893       C2092   1.402   1_455  A
C893        C894   1.397       .  A
C893        H897   1.084       .  S
C894       C2089   1.409   1_455  A
C894        O898   1.372       .  S
O896        H900   0.991       .  S
O898        H899   0.992       .  S
N901        C906   1.351       .  A
N901        C905   1.351       .  A
N901        H933   1.041   1_655  S
N902        C909   1.350   1_655  A
N902        C910   1.349   1_655  A
N903        C908   1.354       .  A
N903        C907   1.352       .  A
N903        H934   1.041   1_655  S
N904        C911   1.350   1_655  A
N904        C912   1.351   1_655  A
C905        C913   1.388       .  A
C905        C921   1.413       .  A
C906        C922   1.413       .  A
C906        C914   1.387       .  A
C907        C915   1.387       .  A
C907        C924   1.415       .  A
C908        C923   1.417       .  A
C908        C916   1.387       .  A
C909        C921   1.412   1_455  A
C909        C917   1.387       .  A
C910        C924   1.411   1_455  A
C910        C918   1.387       .  A
C911        C919   1.385       .  A
C911        C922   1.411   1_455  A
C912        C920   1.386       .  A
C912        C923   1.412   1_455  A
C913        C914   1.377       .  A
C913        H925   1.082       .  S
C914        H926   1.082       .  S
C915        C916   1.378       .  A
C915        H927   1.082       .  S
C916        H928   1.082       .  S
C917        C918   1.374       .  A
C917        H929   1.082       .  S
C918        H930   1.082       .  S
C919        C920   1.376       .  A
C919        H931   1.082       .  S
C920        H932   1.082       .  S
C921       C2353   1.487       .  S
C922       C2365   1.490       .  S
C923       C2377   1.496       .  S
C924       C2392   1.487       .  S
O935        C946   1.292       .  A
O936        C947   1.292       .  A
O937        C948   1.292       .  A
O938        C949   1.294       .  A
O938      Zr1543   2.445       .  S
O941        C947   1.296       .  A
O941       Zr943   2.464       .  S
O942        C946   1.293       .  A
Zr943      O1538   2.438       .  S
Zr943      O2144   2.340       .  S
Zr943      O1553   2.353   1_565  S
Zr943       O951   2.343       .  S
O944      Zr2143   2.341       .  S
O944      Zr1870   2.336       .  S
C946       C1189   1.475       .  S
C947       C1180   1.487       .  S
C948       C1141   1.478       .  S
C949       C1129   1.479       .  S
H950        O951   0.965       .  S
H952        O953   0.968       .  S
O953      Zr1543   2.349       .  S
O953      Zr1871   2.342       .  S
O954        C977   1.293       .  A
O954       Zr970   2.441       .  S
O955        C978   1.292       .  A
O955       Zr971   2.434   1_556  S
O956        C979   1.293       .  A
O956       Zr972   2.441   1_566  S
O957        C980   1.293       .  A
O957       Zr973   2.440   1_565  S
O958        C981   1.291       .  A
O959        C982   1.293       .  A
O960        C983   1.291       .  A
O960       Zr974   2.436       .  S
O961        C984   1.290   1_565  A
O961      Zr2174   2.427   1_465  S
O962        C983   1.293       .  A
O962       Zr972   2.446   1_556  S
O963        C984   1.295       .  A
O963       Zr973   2.453       .  S
O964        C979   1.292       .  A
O964       Zr970   2.434       .  S
O965        C982   1.292       .  A
O965       Zr971   2.438       .  S
O966        C981   1.295       .  A
O966      Zr2171   2.452   1_455  S
O967        C980   1.294   1_554  A
O967      Zr2170   2.451   1_554  S
O968        C977   1.294       .  A
O968       Zr974   2.450   1_565  S
O969        C978   1.292       .  A
Zr970      O2167   2.450   1_556  S
Zr970      O1844   2.338   1_556  S
Zr970       O976   2.345       .  S
Zr970      O2188   2.342       .  S
Zr971      O2166   2.449       .  S
Zr971      O1853   2.341       .  S
Zr971      O2175   2.339   1_554  S
Zr971       O986   2.345   1_554  S
Zr972       O976   2.338   1_544  S
Zr973       O988   2.344   1_545  S
Zr974      O2161   2.422       .  S
Zr974      O1575   2.348       .  S
Zr974       O976   2.333   1_545  S
Zr974      O2188   2.345   1_545  S
O975      Zr2171   2.337   1_456  S
O975      Zr1574   2.348   1_455  S
C977       C1168   1.484       .  S
C978       C1156   1.474       .  S
C979       C1060   1.471       .  S
C980       C1084   1.480       .  S
C981       C1093   1.487       .  S
C982       C1069   1.479       .  S
C983       C1108   1.477       .  S
C984       C1117   1.476       .  S
H985        O986   0.966       .  S
H987        O988   0.967       .  S
O988      Zr2170   2.345       .  S
O988      Zr2174   2.346   1_465  S
N989        C994   1.352       .  A
N989        C993   1.352       .  A
N989       H1021   1.041       .  S
N990        C997   1.353       .  A
N990        C998   1.351       .  A
N991        C996   1.353       .  A
N991        C995   1.352       .  A
N991       H1022   1.040       .  S
N992        C999   1.350       .  A
N992       C1000   1.350       .  A
C993       C1001   1.387       .  A
C993       C1009   1.413       .  A
C994       C1010   1.413       .  A
C994       C1002   1.387       .  A
C995       C1003   1.388       .  A
C995       C1012   1.416       .  A
C996       C1011   1.414       .  A
C996       C1004   1.387       .  A
C997       C1009   1.414       .  A
C997       C1005   1.385       .  A
C998       C1012   1.415       .  A
C998       C1006   1.387       .  A
C999       C1007   1.387       .  A
C999       C1010   1.411       .  A
C1000      C1008   1.386       .  A
C1000      C1011   1.409       .  A
C1001      C1002   1.377       .  A
C1001      H1013   1.082       .  S
C1002      H1014   1.082       .  S
C1003      C1004   1.378       .  A
C1003      H1015   1.082       .  S
C1004      H1016   1.083       .  S
C1005      C1006   1.376       .  A
C1005      H1017   1.082       .  S
C1006      H1018   1.082       .  S
C1007      C1008   1.374       .  A
C1007      H1019   1.082       .  S
C1008      H1020   1.082       .  S
C1009      C1144   1.492       .  S
C1010      C1132   1.489       .  S
C1011      C1120   1.485       .  S
C1012      C1105   1.489       .  S
N1023      C1028   1.353   1_556  A
N1023      C1027   1.353   1_556  A
N1023      H1055   1.041       .  S
N1024      C1031   1.350       .  A
N1024      C1032   1.351       .  A
N1025      C1030   1.351       .  A
N1025      C1029   1.353       .  A
N1025      H1056   1.042       .  S
N1026      C1033   1.353       .  A
N1026      C1034   1.352       .  A
C1027      C1035   1.389       .  A
C1027      C1043   1.420       .  A
C1028      C1044   1.416       .  A
C1028      C1036   1.387       .  A
C1029      C1037   1.386   1_556  A
C1029      C1046   1.412       .  A
C1030      C1045   1.413       .  A
C1030      C1038   1.388   1_556  A
C1031      C1043   1.414   1_556  A
C1031      C1039   1.387       .  A
C1032      C1046   1.409       .  A
C1032      C1040   1.384       .  A
C1033      C1041   1.386       .  A
C1033      C1044   1.415   1_556  A
C1034      C1042   1.385       .  A
C1034      C1045   1.414       .  A
C1035      C1036   1.379       .  A
C1035      H1047   1.082       .  S
C1036      H1048   1.082       .  S
C1037      C1038   1.376       .  A
C1037      H1049   1.082       .  S
C1038      H1050   1.082       .  S
C1039      C1040   1.375       .  A
C1039      H1051   1.082       .  S
C1040      H1052   1.082       .  S
C1041      C1042   1.375       .  A
C1041      H1053   1.082       .  S
C1042      H1054   1.082       .  S
C1043      C1096   1.497       .  S
C1044      C1072   1.494       .  S
C1045      C1057   1.489       .  S
C1046      C1081   1.491       .  S
C1057      C1058   1.406       .  A
C1058      C1059   1.401       .  A
C1058      H1063   1.084       .  S
C1059      C1060   1.407       .  A
C1059      O1064   1.372       .  S
C1061      C1062   1.398       .  A
C1061      H1065   1.084       .  S
C1062      O1066   1.372       .  S
O1064      H1068   0.992       .  S
O1066      H1067   0.992       .  S
C1069      C1070   1.404   1_554  A
C1070      C1071   1.400       .  A
C1070      H1075   1.084       .  S
C1071      C1072   1.410   1_556  A
C1071      O1076   1.372       .  S
C1073      C1074   1.399       .  A
C1073      H1077   1.083       .  S
C1074      O1078   1.372       .  S
O1076      H1080   0.992       .  S
O1078      H1079   0.992       .  S
C1081      C1082   1.403       .  A
C1082      C1083   1.401       .  A
C1082      H1087   1.084       .  S
C1083      C1084   1.411       .  A
C1083      O1088   1.372       .  S
C1085      C1086   1.402       .  A
C1085      H1089   1.083       .  S
C1086      O1090   1.372       .  S
O1088      H1092   0.992       .  S
O1090      H1091   0.992       .  S
C1093      C1098   1.412   1_554  A
C1094      C1095   1.405       .  A
C1094      H1099   1.083       .  S
C1095      O1100   1.374       .  S
C1096      C1097   1.402   1_554  A
C1097      C1098   1.396       .  A
C1097      H1101   1.084       .  S
C1098      O1102   1.370       .  S
O1100      H1104   0.992       .  S
O1102      H1103   0.992       .  S
C1105      C1110   1.409       .  A
C1106      C1107   1.400       .  A
C1106      H1111   1.084       .  S
C1107      C1108   1.408   1_565  A
C1107      O1112   1.370       .  S
C1109      C1110   1.403       .  A
C1109      H1113   1.084       .  S
C1110      O1114   1.372       .  S
O1112      H1116   0.992       .  S
O1114      H1115   0.992       .  S
C1117      C1118   1.405   1_545  A
C1118      C1119   1.404       .  A
C1118      H1123   1.084       .  S
C1119      O1124   1.373       .  S
C1120      C1121   1.402       .  A
C1121      C1122   1.401       .  A
C1121      H1125   1.084       .  S
C1122      O1126   1.370       .  S
O1124      H1128   0.992       .  S
O1126      H1127   0.992       .  S
C1129      C1130   1.405       .  A
C1130      C1131   1.401       .  A
C1130      H1135   1.084       .  S
C1131      C1132   1.409       .  A
C1131      O1136   1.372       .  S
C1133      C1134   1.399       .  A
C1133      H1137   1.084       .  S
C1134      O1138   1.372       .  S
O1136      H1140   0.991       .  S
O1138      H1139   0.992       .  S
C1141      C1146   1.409       .  A
C1142      C1143   1.401       .  A
C1142      H1147   1.084       .  S
C1143      O1148   1.373       .  S
C1144      C1145   1.406       .  A
C1145      C1146   1.403       .  A
C1145      H1149   1.084       .  S
C1146      O1150   1.372       .  S
O1148      H1152   0.992       .  S
O1150      H1151   0.992       .  S
C1153      C2354   1.406       .  A
C1153      C1158   1.410       .  A
C1153      C2121   1.491       .  S
C1154      C2353   1.405   1_455  A
C1154      C1155   1.398       .  A
C1154      H1159   1.084       .  S
C1155      C2356   1.408   1_455  A
C1155      O1160   1.372       .  S
C1156      C2355   1.408       .  A
C1156      C1157   1.403       .  A
C1157      C1158   1.397       .  A
C1157      H1161   1.084       .  S
C1158      O1162   1.372       .  S
O1160      H1164   0.992       .  S
O1162      H1163   0.992       .  S
C1165      C2366   1.403       .  A
C1165      C1170   1.410       .  A
C1165      C2122   1.493       .  S
C1166      C2365   1.403   1_455  A
C1166      C1167   1.400       .  A
C1166      H1171   1.084       .  S
C1167      C2368   1.410   1_455  A
C1167      O1172   1.372       .  S
C1168      C2367   1.411       .  A
C1168      C1169   1.405       .  A
C1169      C1170   1.402       .  A
C1169      H1173   1.080       .  S
C1170      O1174   1.372       .  S
O1172      H1176   0.992       .  S
O1174      H1175   0.992       .  S
C1177      C2378   1.404       .  A
C1177      C1182   1.411       .  A
C1177      C2123   1.497       .  S
C1178      C2377   1.403   1_455  A
C1178      C1179   1.401       .  A
C1178      H1183   1.084       .  S
C1179      C2380   1.411   1_455  A
C1179      O1184   1.371       .  S
C1180      C2379   1.411       .  A
C1180      C1181   1.406       .  A
C1181      C1182   1.405       .  A
C1181      H1185   1.083       .  S
C1182      O1186   1.373       .  S
O1184      H1188   0.992       .  S
O1186      H1187   0.992       .  S
C1189      C1190   1.405       .  A
C1189      C2394   1.408       .  A
C1190      C1191   1.403       .  A
C1190      H1195   1.084       .  S
C1191      C1192   1.410       .  A
C1191      O1196   1.372       .  S
C1192      C2393   1.402       .  A
C1192      C2124   1.490       .  S
C1193      C2392   1.401   1_455  A
C1193      C1194   1.396       .  A
C1193      H1197   1.084       .  S
C1194      C2389   1.408   1_455  A
C1194      O1198   1.372       .  S
O1196      H1200   0.992       .  S
O1198      H1199   0.992       .  S
N1201      C1206   1.352       .  A
N1201      C1205   1.354       .  A
N1201      H1233   1.041       .  S
N1202      C1209   1.350       .  A
N1202      C1210   1.349       .  A
N1203      C1208   1.353       .  A
N1203      C1207   1.352       .  A
N1203      H1234   1.041       .  S
N1204      C1211   1.350       .  A
N1204      C1212   1.352       .  A
C1205      C1213   1.386       .  A
C1205      C1221   1.415       .  A
C1206      C1222   1.414       .  A
C1206      C1214   1.387       .  A
C1207      C1215   1.387       .  A
C1207      C1224   1.415       .  A
C1208      C1223   1.412       .  A
C1208      C1216   1.386       .  A
C1209      C1221   1.411       .  A
C1209      C1217   1.386       .  A
C1210      C1224   1.411       .  A
C1210      C1218   1.387       .  A
C1211      C1219   1.387       .  A
C1211      C1222   1.413       .  A
C1212      C1220   1.386       .  A
C1212      C1223   1.413       .  A
C1213      C1214   1.378       .  A
C1213      H1225   1.082       .  S
C1214      H1226   1.082       .  S
C1215      C1216   1.377       .  A
C1215      H1227   1.082       .  S
C1216      H1228   1.082       .  S
C1217      C1218   1.374       .  A
C1217      H1229   1.082       .  S
C1218      H1230   1.082       .  S
C1219      C1220   1.376       .  A
C1219      H1231   1.082       .  S
C1220      H1232   1.082       .  S
O1235      C1246   1.292   1_455  A
O1235     Zr1571   2.439       .  S
O1236      C1247   1.293       .  A
O1236     Zr1570   2.443   1_554  S
O1237      C1248   1.290       .  A
O1237     Zr1843   2.425   1_645  S
O1238      C1249   1.292       .  A
O1239      C1849   1.294       .  A
O1239     Zr1573   2.442   1_554  S
O1240      C1848   1.292       .  A
O1240     Zr1572   2.439       .  S
O1241      C1247   1.294       .  A
O1241     Zr1243   2.451       .  S
O1242      C1246   1.293   1_455  A
O1242     Zr1843   2.444   1_545  S
Zr1243     O1837   2.435   1_455  S
Zr1243     O1842   2.450   1_455  S
Zr1243     O1845   2.339   1_455  S
Zr1243     O1251   2.339   1_455  S
O1244     Zr1573   2.345   1_554  S
O1245     Zr1843   2.339   1_645  S
O1245     Zr1571   2.337   1_655  S
O1245     Zr2172   2.336       .  S
C1246      C1489   1.478       .  S
C1247      C1480   1.482       .  S
C1248      C1441   1.473       .  S
C1248      O1840   1.293       .  A
C1249      C1429   1.469       .  S
C1249      O1839   1.292   1_565  A
H1250      O1251   0.967       .  S
O1251     Zr1570   2.347   1_654  S
O1251     Zr1572   2.346       .  S
H1252      O1253   0.966       .  S
O1253     Zr2173   2.341   1_554  S
O1254      C1277   1.292       .  A
O1254     Zr1270   2.439       .  S
O1255      C1278   1.291       .  A
O1255     Zr1271   2.432       .  S
O1256      C1279   1.291       .  A
O1256     Zr1272   2.433       .  S
O1257      C1280   1.291       .  A
O1257     Zr1273   2.435       .  S
O1258      C1281   1.294       .  A
O1258     Zr1873   2.448       .  S
O1259      C1282   1.291       .  A
O1259     Zr1872   2.428   1_545  S
O1260      C1283   1.291       .  A
O1260     Zr1274   2.437   1_655  S
O1261      C1284   1.291       .  A
O1262      C1283   1.291       .  A
O1262     Zr1272   2.436       .  S
O1263      C1284   1.292       .  A
O1263     Zr1273   2.443       .  S
O1264      C1279   1.291       .  A
O1264     Zr1270   2.431   1_655  S
O1265      C1282   1.291       .  A
O1265     Zr1271   2.432       .  S
O1266      C1281   1.295       .  A
O1267      C1280   1.295       .  A
O1268      C1277   1.294   1_655  A
O1268     Zr1274   2.451   1_655  S
O1269      C1278   1.295       .  A
O1269     Zr1874   2.450       .  S
Zr1270     O1536   2.434       .  S
Zr1270     O1551   2.347   1_455  S
Zr1270     O1276   2.341   1_455  S
Zr1271     O1535   2.428       .  S
Zr1271     O1545   2.339       .  S
Zr1271     O1286   2.349       .  S
Zr1272     O1540   2.444       .  S
Zr1272     O1859   2.434       .  S
Zr1272     O2145   2.332       .  S
Zr1272     O1551   2.343       .  S
Zr1272     O1276   2.341       .  S
Zr1272     O1886   2.336       .  S
Zr1273     O1539   2.434       .  S
Zr1273     O1858   2.433       .  S
Zr1273     O1544   2.346       .  S
Zr1273     O2153   2.344       .  S
Zr1273     O1875   2.331       .  S
Zr1273     O1288   2.345       .  S
Zr1274     O1869   2.428   1_455  S
Zr1274     O1276   2.329   1_455  S
Zr1274     O1886   2.342   1_455  S
O1275     Zr1873   2.335       .  S
C1277      C1468   1.481       .  S
C1278      C1456   1.479       .  S
C1279      C1360   1.465       .  S
C1280      C1384   1.478       .  S
C1281      C1393   1.497       .  S
C1282      C1369   1.469       .  S
C1283      C1408   1.470       .  S
C1284      C1417   1.466       .  S
H1285      O1286   0.968       .  S
O1286     Zr1872   2.337   1_545  S
O1286     Zr1874   2.339       .  S
H1287      O1288   0.967       .  S
N1289      C1294   1.351   1_545  A
N1289      C1293   1.352   1_545  A
N1289      H1321   1.040       .  S
N1290      C1297   1.351       .  A
N1290      C1298   1.351       .  A
N1291      C1296   1.353   1_545  A
N1291      C1295   1.353   1_545  A
N1291      H1322   1.040       .  S
N1292      C1299   1.349   1_565  A
N1292      C1300   1.350   1_565  A
C1293      C1301   1.388       .  A
C1293      C1309   1.415   1_565  A
C1294      C1310   1.412   1_565  A
C1294      C1302   1.387       .  A
C1295      C1303   1.387       .  A
C1295      C1312   1.416   1_565  A
C1296      C1311   1.418       .  A
C1296      C1304   1.387       .  A
C1297      C1309   1.413       .  A
C1297      C1305   1.386       .  A
C1298      C1312   1.413       .  A
C1298      C1306   1.386       .  A
C1299      C1307   1.386       .  A
C1299      C1310   1.409       .  A
C1300      C1308   1.386       .  A
C1300      C1311   1.409   1_545  A
C1301      C1302   1.378       .  A
C1301      H1313   1.082       .  S
C1302      H1314   1.082       .  S
C1303      C1304   1.378       .  A
C1303      H1315   1.082       .  S
C1304      H1316   1.082       .  S
C1305      C1306   1.375       .  A
C1305      H1317   1.082       .  S
C1306      H1318   1.082       .  S
C1307      C1308   1.372       .  A
C1307      H1319   1.082       .  S
C1308      H1320   1.082       .  S
C1309      C1444   1.488       .  S
C1310      C1432   1.483       .  S
C1311      C1420   1.490       .  S
C1312      C1405   1.491       .  S
N1323      C1328   1.353       .  A
N1323      C1327   1.356       .  A
N1323      H1355   1.041       .  S
N1324      C1331   1.354       .  A
N1324      C1332   1.352       .  A
N1325      C1330   1.353       .  A
N1325      C1329   1.352       .  A
N1325      H1356   1.040       .  S
N1326      C1333   1.350       .  A
N1326      C1334   1.352       .  A
C1327      C1335   1.388       .  A
C1327      C1343   1.422       .  A
C1328      C1344   1.417       .  A
C1328      C1336   1.387       .  A
C1329      C1337   1.388       .  A
C1329      C1346   1.413       .  A
C1330      C1345   1.412       .  A
C1330      C1338   1.386       .  A
C1331      C1343   1.417       .  A
C1331      C1339   1.386       .  A
C1332      C1346   1.414       .  A
C1332      C1340   1.385       .  A
C1333      C1341   1.388       .  A
C1333      C1344   1.414       .  A
C1334      C1342   1.385       .  A
C1334      C1345   1.411       .  A
C1335      C1336   1.379       .  A
C1335      H1347   1.082       .  S
C1336      H1348   1.083       .  S
C1337      C1338   1.374       .  A
C1337      H1349   1.082       .  S
C1338      H1350   1.082       .  S
C1339      C1340   1.377       .  A
C1339      H1351   1.082       .  S
C1340      H1352   1.082       .  S
C1341      C1342   1.372       .  A
C1341      H1353   1.082       .  S
C1342      H1354   1.082       .  S
C1343      C1396   1.508       .  S
C1344      C1372   1.488       .  S
C1345      C1357   1.486       .  S
C1346      C1381   1.491       .  S
C1357      C1358   1.405       .  A
C1357      C1662   1.408       .  A
C1358      C1359   1.400       .  A
C1358      H1363   1.084       .  S
C1359      C1360   1.407       .  A
C1359      O1364   1.373       .  S
C1360      C1661   1.400       .  A
C1361      C1660   1.402   1_554  A
C1361      C1362   1.399       .  A
C1361      H1365   1.084       .  S
C1362      C1657   1.410   1_554  A
C1362      O1366   1.373       .  S
O1364      H1368   0.992       .  S
O1366      H1367   0.992       .  S
C1369      C1370   1.402       .  A
C1369      C1674   1.408       .  A
C1370      C1371   1.398       .  A
C1370      H1375   1.084       .  S
C1371      C1372   1.408       .  A
C1371      O1376   1.372       .  S
C1372      C1673   1.405       .  A
C1373      C1672   1.404       .  A
C1373      C1374   1.397       .  A
C1373      H1377   1.084       .  S
C1374      C1669   1.410       .  A
C1374      O1378   1.372       .  S
O1376      H1380   0.992       .  S
O1378      H1379   0.992       .  S
C1381      C1382   1.405       .  A
C1381      C1686   1.408       .  A
C1382      C1383   1.402       .  A
C1382      H1387   1.084       .  S
C1383      C1384   1.410       .  A
C1383      O1388   1.372       .  S
C1384      C1685   1.403       .  A
C1385      C1684   1.404   1_554  A
C1385      C1386   1.401       .  A
C1385      H1389   1.083       .  S
C1386      C1681   1.408   1_554  A
C1386      O1390   1.372       .  S
O1388      H1392   0.992       .  S
O1390      H1391   0.992       .  S
C1393      C1694   1.407       .  A
C1393      C1398   1.411       .  A
C1394      C1693   1.407       .  A
C1394      C1395   1.407       .  A
C1394      H1399   1.083       .  S
C1395      C1696   1.413   1_554  A
C1395      O1400   1.374       .  S
C1396      C1695   1.415       .  A
C1396      C1397   1.404       .  A
C1397      C1398   1.401       .  A
C1397      H1401   1.084       .  S
C1398      O1402   1.366       .  S
O1400      H1404   0.992       .  S
O1402      H1403   0.992       .  S
C1405      C2006   1.403   1_545  A
C1405      C1410   1.408       .  A
C1406      C2005   1.401       .  A
C1406      C1407   1.397       .  A
C1406      H1411   1.084       .  S
C1407      C1408   1.405       .  A
C1407      O1412   1.370       .  S
C1408      C2009   1.403       .  A
C1409      C2008   1.405       .  A
C1409      C1410   1.405       .  A
C1409      H1413   1.084       .  S
C1410      O1414   1.372       .  S
O1412      H1416   0.991       .  S
O1414      H1415   0.992       .  S
C1417      C1418   1.401       .  A
C1417      C2022   1.408       .  A
C1418      C1419   1.397       .  A
C1418      H1423   1.084       .  S
C1419      C2020   1.406       .  A
C1419      O1424   1.371       .  S
C1420      C2019   1.411       .  A
C1420      C1421   1.399   1_565  A
C1421      C1422   1.396       .  A
C1421      H1425   1.084       .  S
C1422      C2017   1.406       .  A
C1422      O1426   1.366       .  S
O1424      H1428   0.992       .  S
O1426      H1427   0.992       .  S
C1429      C1430   1.404   1_565  A
C1429      C2034   1.407       .  A
C1430      C1431   1.399       .  A
C1430      H1435   1.084       .  S
C1431      C1432   1.408       .  A
C1431      O1436   1.372       .  S
C1432      C2033   1.403   1_545  A
C1433      C2032   1.405       .  A
C1433      C1434   1.399       .  A
C1433      H1437   1.084       .  S
C1434      C2029   1.411       .  A
C1434      O1438   1.372       .  S
O1436      H1440   0.992       .  S
O1438      H1439   0.992       .  S
C1441      C2042   1.403   1_545  A
C1441      C1446   1.408       .  A
C1442      C2041   1.404       .  A
C1442      C1443   1.401       .  A
C1442      H1447   1.084       .  S
C1443      C2044   1.408       .  A
C1443      O1448   1.372       .  S
C1444      C2043   1.409   1_545  A
C1444      C1445   1.404       .  A
C1445      C1446   1.400       .  A
C1445      H1449   1.084       .  S
C1446      O1450   1.373       .  S
O1448      H1452   0.992       .  S
O1450      H1451   0.991       .  S
C1453      C1458   1.411       .  A
C1454      C1455   1.401       .  A
C1454      H1459   1.084       .  S
C1455      O1460   1.372       .  S
C1456      C1457   1.404       .  A
C1457      C1458   1.400       .  A
C1457      H1461   1.084       .  S
C1458      O1462   1.372       .  S
O1460      H1464   0.992       .  S
O1462      H1463   0.992       .  S
C1465      C1470   1.409   1_455  A
C1466      C1467   1.401       .  A
C1466      H1471   1.084       .  S
C1467      O1472   1.372       .  S
C1468      C1469   1.403   1_455  A
C1469      C1470   1.401       .  A
C1469      H1473   1.079       .  S
C1470      O1474   1.372       .  S
O1472      H1476   0.992       .  S
O1474      H1475   0.992       .  S
C1477      C1482   1.409       .  A
C1478      C1479   1.403       .  A
C1478      H1483   1.084       .  S
C1479      O1484   1.371       .  S
C1480      C1481   1.405   1_455  A
C1481      C1482   1.403       .  A
C1481      H1485   1.084       .  S
C1482      O1486   1.372       .  S
O1484      H1488   0.992       .  S
O1486      H1487   0.992       .  S
C1489      C1490   1.405       .  A
C1490      C1491   1.403       .  A
C1490      H1495   1.084       .  S
C1491      C1492   1.411       .  A
C1491      O1496   1.372       .  S
C1493      C1494   1.397       .  A
C1493      H1497   1.084       .  S
C1494      O1498   1.372       .  S
O1496      H1500   0.992       .  S
O1498      H1499   0.992       .  S
N1501      C1506   1.353       .  A
N1501      C1505   1.354       .  A
N1501      H1533   1.040       .  S
N1502      C1509   1.352       .  A
N1502      C1510   1.351       .  A
N1503      C1508   1.354       .  A
N1503      C1507   1.352       .  A
N1503      H1534   1.040       .  S
N1504      C1511   1.349       .  A
N1504      C1512   1.351       .  A
C1505      C1513   1.386       .  A
C1505      C1521   1.416       .  A
C1506      C1522   1.417       .  A
C1506      C1514   1.388       .  A
C1507      C1515   1.387       .  A
C1507      C1524   1.415       .  A
C1508      C1523   1.415       .  A
C1508      C1516   1.386       .  A
C1509      C1521   1.413       .  A
C1509      C1517   1.386       .  A
C1510      C1524   1.414       .  A
C1510      C1518   1.387       .  A
C1511      C1519   1.387       .  A
C1511      C1522   1.412       .  A
C1512      C1520   1.386       .  A
C1512      C1523   1.413       .  A
C1513      C1514   1.376       .  A
C1513      H1525   1.082       .  S
C1514      H1526   1.082       .  S
C1515      C1516   1.377       .  A
C1515      H1527   1.082       .  S
C1516      H1528   1.082       .  S
C1517      C1518   1.374       .  A
C1517      H1529   1.082       .  S
C1518      H1530   1.082       .  S
C1519      C1520   1.375       .  A
C1519      H1531   1.082       .  S
C1520      H1532   1.082       .  S
O1535      C1546   1.290       .  A
O1536      C1547   1.291       .  A
O1537      C1548   1.289   1_565  A
O1537     Zr2143   2.422   1_655  S
O1538      C1549   1.293       .  A
O1539      C2149   1.292       .  A
O1540      C2148   1.293       .  A
O1541      C1547   1.294       .  A
O1541     Zr1543   2.450       .  S
O1542      C1546   1.295       .  A
O1542     Zr2143   2.454   1_645  S
Zr1543     O2137   2.438   1_455  S
Zr1543     O2142   2.446   1_455  S
Zr1543     O2145   2.338   1_455  S
Zr1543     O1551   2.340   1_455  S
O1545     Zr2143   2.340   1_645  S
O1545     Zr1872   2.338   1_545  S
C1546      C1789   1.476       .  S
C1547      C1780   1.479       .  S
C1548      C1741   1.471       .  S
C1548      O2140   1.294       .  A
C1549      C1729   1.472       .  S
C1549      O2139   1.293   1_565  A
H1550      O1551   0.966       .  S
H1552      O1553   0.966       .  S
O1553     Zr1873   2.343       .  S
O1554      C1577   1.292       .  A
O1554     Zr1570   2.440       .  S
O1555      C1578   1.292   1_455  A
O1555     Zr1571   2.438   1_556  S
O1556      C1579   1.292       .  A
O1556     Zr1572   2.434   1_556  S
O1557      C1580   1.294       .  A
O1557     Zr1573   2.449       .  S
O1558      C1581   1.293   1_556  A
O1558     Zr2173   2.443       .  S
O1559      C1582   1.291       .  A
O1559     Zr2172   2.428       .  S
O1560      C1583   1.293       .  A
O1560     Zr1574   2.445       .  S
O1561      C1584   1.291       .  A
O1562      C1583   1.291       .  A
O1562     Zr1572   2.438   1_556  S
O1563      C1584   1.294       .  A
O1563     Zr1573   2.448       .  S
O1564      C1579   1.292       .  A
O1564     Zr1570   2.435   1_655  S
O1565      C1582   1.291       .  A
O1565     Zr1571   2.433   1_655  S
O1566      C1581   1.294       .  A
O1567      C1580   1.293       .  A
O1568      C1577   1.294   1_655  A
O1568     Zr1574   2.450       .  S
O1569      C1578   1.294       .  A
O1569     Zr2174   2.448       .  S
Zr1570     O1576   2.344   1_455  S
Zr1571     O1586   2.349   1_454  S
Zr1572     O2159   2.442       .  S
Zr1572     O1845   2.336       .  S
Zr1572     O1576   2.341   1_554  S
Zr1572     O2186   2.334   1_554  S
Zr1573     O2158   2.441   1_556  S
Zr1573     O1853   2.346   1_556  S
Zr1573     O2175   2.339       .  S
Zr1573     O1588   2.345       .  S
Zr1574     O2169   2.431       .  S
Zr1574     O1576   2.330       .  S
Zr1574     O2186   2.339       .  S
O1575     Zr2173   2.333       .  S
C1577      C1768   1.482       .  S
C1578      C1756   1.478       .  S
C1579      C1660   1.469       .  S
C1580      C1684   1.481       .  S
C1581      C1693   1.494       .  S
C1582      C1669   1.472       .  S
C1583      C1708   1.475       .  S
C1584      C1717   1.471       .  S
H1585      O1586   0.968       .  S
O1586     Zr2172   2.338   1_556  S
O1586     Zr2174   2.341       .  S
H1587      O1588   0.965       .  S
N1589      C1594   1.352   1_545  A
N1589      C1593   1.351   1_545  A
N1589      H1621   1.040       .  S
N1590      C1597   1.350       .  A
N1590      C1598   1.350       .  A
N1591      C1596   1.353   1_545  A
N1591      C1595   1.354   1_545  A
N1591      H1622   1.040       .  S
N1592      C1599   1.348       .  A
N1592      C1600   1.348       .  A
C1593      C1601   1.388       .  A
C1593      C1609   1.414   1_565  A
C1594      C1610   1.412   1_565  A
C1594      C1602   1.386       .  A
C1595      C1603   1.386       .  A
C1595      C1612   1.416   1_565  A
C1596      C1611   1.417   1_565  A
C1596      C1604   1.388       .  A
C1597      C1609   1.411       .  A
C1597      C1605   1.386       .  A
C1598      C1612   1.411       .  A
C1598      C1606   1.386       .  A
C1599      C1607   1.387       .  A
C1599      C1610   1.409       .  A
C1600      C1608   1.387       .  A
C1600      C1611   1.409       .  A
C1601      C1602   1.377       .  A
C1601      H1613   1.082       .  S
C1602      H1614   1.082       .  S
C1603      C1604   1.378       .  A
C1603      H1615   1.082       .  S
C1604      H1616   1.082       .  S
C1605      C1606   1.374       .  A
C1605      H1617   1.082       .  S
C1606      H1618   1.082       .  S
C1607      C1608   1.373       .  A
C1607      H1619   1.082       .  S
C1608      H1620   1.082       .  S
C1609      C1744   1.486       .  S
C1610      C1732   1.483   1_545  S
C1611      C1720   1.485       .  S
C1612      C1705   1.491       .  S
N1623      C1628   1.350   1_556  A
N1623      C1627   1.353   1_556  A
N1623      H1655   1.042       .  S
N1624      C1631   1.352       .  A
N1624      C1632   1.351       .  A
N1625      C1630   1.352       .  A
N1625      C1629   1.351       .  A
N1625      H1656   1.042       .  S
N1626      C1633   1.349       .  A
N1626      C1634   1.349       .  A
C1627      C1635   1.388       .  A
C1627      C1643   1.418   1_554  A
C1628      C1644   1.413   1_554  A
C1628      C1636   1.387       .  A
C1629      C1637   1.387   1_556  A
C1629      C1646   1.412       .  A
C1630      C1645   1.413       .  A
C1630      C1638   1.387   1_556  A
C1631      C1643   1.416       .  A
C1631      C1639   1.386       .  A
C1632      C1646   1.412       .  A
C1632      C1640   1.384       .  A
C1633      C1641   1.387       .  A
C1633      C1644   1.410       .  A
C1634      C1642   1.385       .  A
C1634      C1645   1.408       .  A
C1635      C1636   1.380       .  A
C1635      H1647   1.082       .  S
C1636      H1648   1.083       .  S
C1637      C1638   1.376       .  A
C1637      H1649   1.082       .  S
C1638      H1650   1.082       .  S
C1639      C1640   1.378       .  A
C1639      H1651   1.082       .  S
C1640      H1652   1.082       .  S
C1641      C1642   1.374       .  A
C1641      H1653   1.082       .  S
C1642      H1654   1.082       .  S
C1643      C1696   1.503       .  S
C1644      C1672   1.485   1_556  S
C1645      C1657   1.487       .  S
C1646      C1681   1.490       .  S
C1657      C1658   1.403       .  A
C1658      C1659   1.399       .  A
C1658      H1663   1.084       .  S
C1659      C1660   1.408       .  A
C1659      O1664   1.372       .  S
C1661      C1662   1.398       .  A
C1661      H1665   1.084       .  S
C1662      O1666   1.372       .  S
O1664      H1668   0.992       .  S
O1666      H1667   0.992       .  S
C1669      C1670   1.403   1_554  A
C1670      C1671   1.397       .  A
C1670      H1675   1.084       .  S
C1671      C1672   1.408   1_556  A
C1671      O1676   1.372       .  S
C1673      C1674   1.398       .  A
C1673      H1677   1.084       .  S
C1674      O1678   1.372       .  S
O1676      H1680   0.992       .  S
O1678      H1679   0.991       .  S
C1681      C1682   1.405       .  A
C1682      C1683   1.403       .  A
C1682      H1687   1.084       .  S
C1683      C1684   1.411       .  A
C1683      O1688   1.372       .  S
C1685      C1686   1.400       .  A
C1685      H1689   1.083       .  S
C1686      O1690   1.372       .  S
O1688      H1692   0.992       .  S
O1690      H1691   0.992       .  S
C1693      C1698   1.413   1_554  A
C1694      C1695   1.410       .  A
C1694      H1699   1.083       .  S
C1695      O1700   1.373       .  S
C1696      C1697   1.404       .  A
C1697      C1698   1.400       .  A
C1697      H1701   1.084       .  S
C1698      O1702   1.369       .  S
O1700      H1704   0.992       .  S
O1702      H1703   0.992       .  S
C1705      C2306   1.404   1_545  A
C1705      C1710   1.408       .  A
C1706      C2305   1.402       .  A
C1706      C1707   1.398       .  A
C1706      H1711   1.084       .  S
C1707      C1708   1.406       .  A
C1707      O1712   1.370       .  S
C1708      C2309   1.404       .  A
C1709      C2308   1.404       .  A
C1709      C1710   1.403       .  A
C1709      H1713   1.084       .  S
C1710      O1714   1.371       .  S
O1712      H1716   0.992       .  S
O1714      H1715   0.991       .  S
C1717      C1718   1.403       .  A
C1717      C2322   1.407       .  A
C1718      C1719   1.399       .  A
C1718      H1723   1.084       .  S
C1719      C2320   1.407       .  A
C1719      O1724   1.372       .  S
C1720      C2319   1.410   1_545  A
C1720      C1721   1.399       .  A
C1721      C1722   1.397       .  A
C1721      H1725   1.084       .  S
C1722      C2317   1.405       .  A
C1722      O1726   1.369       .  S
O1724      H1728   0.992       .  S
O1726      H1727   0.991       .  S
C1729      C1730   1.403   1_565  A
C1729      C2334   1.409       .  A
C1730      C1731   1.399       .  A
C1730      H1735   1.084       .  S
C1731      C1732   1.406   1_545  A
C1731      O1736   1.372       .  S
C1732      C2333   1.404       .  A
C1733      C2332   1.404       .  A
C1733      C1734   1.398       .  A
C1733      H1737   1.084       .  S
C1734      C2329   1.410       .  A
C1734      O1738   1.372       .  S
O1736      H1740   0.992       .  S
O1738      H1739   0.992       .  S
C1741      C2342   1.404   1_545  A
C1741      C1746   1.407       .  A
C1742      C2341   1.404       .  A
C1742      C1743   1.402       .  A
C1742      H1747   1.084       .  S
C1743      C2344   1.408       .  A
C1743      O1748   1.372       .  S
C1744      C2343   1.408   1_545  A
C1744      C1745   1.404       .  A
C1745      C1746   1.398       .  A
C1745      H1749   1.084       .  S
C1746      O1750   1.372       .  S
O1748      H1752   0.992       .  S
O1750      H1751   0.991       .  S
C1753      C1758   1.411       .  A
C1754      C1755   1.402       .  A
C1754      H1759   1.084       .  S
C1755      O1760   1.372       .  S
C1756      C1757   1.403       .  A
C1757      C1758   1.400       .  A
C1757      H1761   1.084       .  S
C1758      O1762   1.372       .  S
O1760      H1764   0.992       .  S
O1762      H1763   0.992       .  S
C1765      C1770   1.409   1_455  A
C1766      C1767   1.398       .  A
C1766      H1771   1.084       .  S
C1767      O1772   1.372       .  S
C1768      C1769   1.404   1_455  A
C1769      C1770   1.402       .  A
C1769      H1773   1.080       .  S
C1770      O1774   1.372       .  S
O1772      H1776   0.992       .  S
O1774      H1775   0.992       .  S
C1777      C1782   1.409       .  A
C1778      C1779   1.401       .  A
C1778      H1783   1.084       .  S
C1779      O1784   1.371       .  S
C1780      C1781   1.404   1_455  A
C1781      C1782   1.402       .  A
C1781      H1785   1.084       .  S
C1782      O1786   1.372       .  S
O1784      H1788   0.992       .  S
O1786      H1787   0.992       .  S
C1789      C1790   1.405       .  A
C1790      C1791   1.402       .  A
C1790      H1795   1.084       .  S
C1791      C1792   1.411       .  A
C1791      O1796   1.372       .  S
C1793      C1794   1.398       .  A
C1793      H1797   1.084       .  S
C1794      O1798   1.372       .  S
O1796      H1800   0.992       .  S
O1798      H1799   0.992       .  S
N1801      C1806   1.352       .  A
N1801      C1805   1.352       .  A
N1801      H1833   1.040       .  S
N1802      C1809   1.349       .  A
N1802      C1810   1.349       .  A
N1803      C1808   1.355       .  A
N1803      C1807   1.354       .  A
N1803      H1834   1.040       .  S
N1804      C1811   1.353       .  A
N1804      C1812   1.353       .  A
C1805      C1813   1.387       .  A
C1805      C1821   1.413       .  A
C1806      C1822   1.418       .  A
C1806      C1814   1.389       .  A
C1807      C1815   1.387       .  A
C1807      C1824   1.418       .  A
C1808      C1823   1.418       .  A
C1808      C1816   1.387       .  A
C1809      C1821   1.410       .  A
C1809      C1817   1.387       .  A
C1810      C1824   1.410       .  A
C1810      C1818   1.387       .  A
C1811      C1819   1.387       .  A
C1811      C1822   1.417       .  A
C1812      C1820   1.385       .  A
C1812      C1823   1.415       .  A
C1813      C1814   1.377       .  A
C1813      H1825   1.083       .  S
C1814      H1826   1.082       .  S
C1815      C1816   1.377       .  A
C1815      H1827   1.082       .  S
C1816      H1828   1.082       .  S
C1817      C1818   1.372       .  A
C1817      H1829   1.082       .  S
C1818      H1830   1.082       .  S
C1819      C1820   1.374       .  A
C1819      H1831   1.082       .  S
C1820      H1832   1.082       .  S
O1835      C1846   1.290       .  A
O1835     Zr2171   2.427       .  S
O1836      C1847   1.293       .  A
O1836     Zr2170   2.443   1_654  S
O1837      C1848   1.291       .  A
O1838      C1849   1.293       .  A
O1839     Zr2173   2.435   1_554  S
O1840     Zr2172   2.446       .  S
O1841      C1847   1.295       .  A
O1841     Zr1843   2.457   1_655  S
O1842      C1846   1.294       .  A
Zr1843     O1851   2.338   1_455  S
O1844     Zr2173   2.351   1_564  S
O1845     Zr2171   2.339       .  S
C1846      C2089   1.474       .  S
C1847      C2080   1.486       .  S
C1848      C2041   1.472       .  S
C1849      C2029   1.478       .  S
H1850      O1851   0.965       .  S
O1851     Zr2170   2.344   1_654  S
O1851     Zr2172   2.346   1_565  S
H1852      O1853   0.967       .  S
O1854      C1877   1.291   1_455  A
O1854     Zr1870   2.433       .  S
O1855      C1878   1.292       .  A
O1855     Zr1871   2.435   1_655  S
O1856      C1879   1.292       .  A
O1856     Zr1872   2.435       .  S
O1857      C1880   1.292       .  A
O1857     Zr1873   2.434   1_565  S
O1858      C1881   1.291       .  A
O1859      C1882   1.291       .  A
O1860      C1883   1.293   1_565  A
O1860     Zr1874   2.446   1_565  S
O1861      C1884   1.291   1_565  A
O1862      C1883   1.293       .  A
O1862     Zr1872   2.449   1_545  S
O1863      C1884   1.296       .  A
O1863     Zr1873   2.454       .  S
O1864      C1879   1.292       .  A
O1864     Zr1870   2.436   1_655  S
O1865      C1882   1.292       .  A
O1865     Zr1871   2.438   1_655  S
O1866      C1881   1.293       .  A
O1867      C1880   1.294       .  A
O1868      C1877   1.295       .  A
O1868     Zr1874   2.450   1_565  S
O1869      C1878   1.291       .  A
Zr1870     O2136   2.441   1_455  S
Zr1870     O2151   2.343   1_455  S
Zr1870     O1876   2.346   1_455  S
Zr1871     O2135   2.428   1_455  S
Zr1871     O2145   2.335   1_455  S
Zr1871     O1886   2.342   1_455  S
Zr1872     O2140   2.445   1_565  S
Zr1872     O2151   2.346       .  S
Zr1872     O1876   2.338       .  S
Zr1873     O2139   2.440       .  S
Zr1873     O2144   2.349   1_545  S
Zr1873     O1888   2.346   1_545  S
Zr1874     O1876   2.334   1_545  S
C1877      C2068   1.482       .  S
C1878      C2056   1.468       .  S
C1879      C1960   1.470       .  S
C1880      C1984   1.477       .  S
C1881      C1993   1.482       .  S
C1882      C1969   1.476       .  S
C1883      C2008   1.482       .  S
C1884      C2017   1.478       .  S
H1885      O1886   0.967       .  S
H1887      O1888   0.966       .  S
N1889      C1894   1.353       .  A
N1889      C1893   1.352       .  A
N1889      H1921   1.039       .  S
N1890      C1897   1.352       .  A
N1890      C1898   1.352       .  A
N1891      C1896   1.352       .  A
N1891      C1895   1.352       .  A
N1891      H1922   1.038       .  S
N1892      C1899   1.352       .  A
N1892      C1900   1.351       .  A
C1893      C1901   1.387       .  A
C1893      C1909   1.414       .  A
C1894      C1910   1.416       .  A
C1894      C1902   1.388       .  A
C1895      C1903   1.388       .  A
C1895      C1912   1.415       .  A
C1896      C1911   1.413       .  A
C1896      C1904   1.387       .  A
C1897      C1909   1.413       .  A
C1897      C1905   1.386       .  A
C1898      C1912   1.414       .  A
C1898      C1906   1.386       .  A
C1899      C1907   1.387       .  A
C1899      C1910   1.415       .  A
C1900      C1908   1.385       .  A
C1900      C1911   1.410       .  A
C1901      C1902   1.377       .  A
C1901      H1913   1.082       .  S
C1902      H1914   1.082       .  S
C1903      C1904   1.376       .  A
C1903      H1915   1.082       .  S
C1904      H1916   1.082       .  S
C1905      C1906   1.373       .  A
C1905      H1917   1.082       .  S
C1906      H1918   1.082       .  S
C1907      C1908   1.372       .  A
C1907      H1919   1.082       .  S
C1908      H1920   1.082       .  S
C1909      C2044   1.487       .  S
C1910      C2032   1.494       .  S
C1911      C2020   1.482       .  S
C1912      C2005   1.487       .  S
N1923      C1928   1.352       .  A
N1923      C1927   1.351       .  A
N1923      H1955   1.041       .  S
N1924      C1931   1.349       .  A
N1924      C1932   1.350       .  A
N1925      C1930   1.349       .  A
N1925      C1929   1.352       .  A
N1925      H1956   1.041       .  S
N1926      C1933   1.352       .  A
N1926      C1934   1.351       .  A
C1927      C1935   1.388       .  A
C1927      C1943   1.416       .  A
C1928      C1944   1.414       .  A
C1928      C1936   1.387       .  A
C1929      C1937   1.386       .  A
C1929      C1946   1.410       .  A
C1930      C1945   1.410       .  A
C1930      C1938   1.388       .  A
C1931      C1943   1.413       .  A
C1931      C1939   1.387       .  A
C1932      C1946   1.409       .  A
C1932      C1940   1.384       .  A
C1933      C1941   1.386       .  A
C1933      C1944   1.414       .  A
C1934      C1942   1.385       .  A
C1934      C1945   1.412       .  A
C1935      C1936   1.378       .  A
C1935      H1947   1.082       .  S
C1936      H1948   1.082       .  S
C1937      C1938   1.376       .  A
C1937      H1949   1.082       .  S
C1938      H1950   1.082       .  S
C1939      C1940   1.375       .  A
C1939      H1951   1.082       .  S
C1940      H1952   1.082       .  S
C1941      C1942   1.375       .  A
C1941      H1953   1.082       .  S
C1942      H1954   1.082       .  S
C1943      C1996   1.491       .  S
C1944      C1972   1.492       .  S
C1945      C1957   1.485       .  S
C1946      C1981   1.488       .  S
C1957      C1958   1.405       .  A
C1957      C2262   1.407       .  A
C1958      C1959   1.400       .  A
C1958      H1963   1.084       .  S
C1959      C1960   1.408       .  A
C1959      O1964   1.372       .  S
C1960      C2261   1.402       .  A
C1961      C2260   1.402   1_554  A
C1961      C1962   1.398       .  A
C1961      H1965   1.084       .  S
C1962      C2257   1.408   1_554  A
C1962      O1966   1.372       .  S
O1964      H1968   0.992       .  S
O1966      H1967   0.992       .  S
C1969      C1970   1.403       .  A
C1969      C2274   1.410       .  A
C1970      C1971   1.399       .  A
C1970      H1975   1.084       .  S
C1971      C1972   1.410       .  A
C1971      O1976   1.372       .  S
C1972      C2273   1.405       .  A
C1973      C2272   1.404       .  A
C1973      C1974   1.400       .  A
C1973      H1977   1.084       .  S
C1974      C2269   1.410       .  A
C1974      O1978   1.372       .  S
O1976      H1980   0.992       .  S
O1978      H1979   0.992       .  S
C1981      C1982   1.403       .  A
C1981      C2286   1.409       .  A
C1982      C1983   1.400       .  A
C1982      H1987   1.084       .  S
C1983      C1984   1.410       .  A
C1983      O1988   1.372       .  S
C1984      C2285   1.404       .  A
C1985      C2284   1.403   1_554  A
C1985      C1986   1.401       .  A
C1985      H1989   1.083       .  S
C1986      C2281   1.409   1_554  A
C1986      O1990   1.372       .  S
O1988      H1992   0.992       .  S
O1990      H1991   0.992       .  S
C1993      C2294   1.405       .  A
C1993      C1998   1.411       .  A
C1994      C2293   1.407       .  A
C1994      C1995   1.407       .  A
C1994      H1999   1.082       .  S
C1995      C2296   1.412       .  A
C1995      O2000   1.373       .  S
C1996      C2295   1.411       .  A
C1996      C1997   1.402       .  A
C1997      C1998   1.397       .  A
C1997      H2001   1.084       .  S
C1998      O2002   1.371       .  S
O2000      H2004   0.992       .  S
O2002      H2003   0.992       .  S
C2005      C2010   1.409       .  A
C2006      C2007   1.402       .  A
C2006      H2011   1.084       .  S
C2007      C2008   1.408   1_565  A
C2007      O2012   1.371       .  S
C2009      C2010   1.403       .  A
C2009      H2013   1.084       .  S
C2010      O2014   1.372       .  S
O2012      H2016   0.992       .  S
O2014      H2015   0.992       .  S
C2017      C2018   1.405   1_545  A
C2018      C2019   1.404       .  A
C2018      H2023   1.084       .  S
C2019      O2024   1.372       .  S
C2020      C2021   1.403       .  A
C2021      C2022   1.401       .  A
C2021      H2025   1.084       .  S
C2022      O2026   1.371       .  S
O2024      H2028   0.992       .  S
O2026      H2027   0.992       .  S
C2029      C2030   1.404       .  A
C2030      C2031   1.399       .  A
C2030      H2035   1.084       .  S
C2031      C2032   1.410       .  A
C2031      O2036   1.372       .  S
C2033      C2034   1.396       .  A
C2033      H2037   1.084       .  S
C2034      O2038   1.372       .  S
O2036      H2040   0.991       .  S
O2038      H2039   0.992       .  S
C2041      C2046   1.407       .  A
C2042      C2043   1.400       .  A
C2042      H2047   1.084       .  S
C2043      O2048   1.373       .  S
C2044      C2045   1.403       .  A
C2045      C2046   1.400       .  A
C2045      H2049   1.084       .  S
C2046      O2050   1.373       .  S
O2048      H2052   0.992       .  S
O2050      H2051   0.992       .  S
C2053      C2058   1.408       .  A
C2054      C2055   1.398       .  A
C2054      H2059   1.084       .  S
C2055      O2060   1.372       .  S
C2056      C2057   1.403       .  A
C2057      C2058   1.395       .  A
C2057      H2061   1.084       .  S
C2058      O2062   1.372       .  S
O2060      H2064   0.992       .  S
O2062      H2063   0.992       .  S
C2065      C2070   1.410       .  A
C2066      C2067   1.400       .  A
C2066      H2071   1.083       .  S
C2067      O2072   1.372       .  S
C2068      C2069   1.404       .  A
C2069      C2070   1.399       .  A
C2069      H2073   1.080       .  S
C2070      O2074   1.372       .  S
O2072      H2076   0.992       .  S
O2074      H2075   0.992       .  S
C2077      C2082   1.411       .  A
C2078      C2079   1.402       .  A
C2078      H2083   1.084       .  S
C2079      O2084   1.371       .  S
C2080      C2081   1.406       .  A
C2081      C2082   1.406       .  A
C2081      H2085   1.084       .  S
C2082      O2086   1.373       .  S
O2084      H2088   0.992       .  S
O2086      H2087   0.992       .  S
C2089      C2090   1.403       .  A
C2090      C2091   1.402       .  A
C2090      H2095   1.084       .  S
C2091      C2092   1.411       .  A
C2091      O2096   1.372       .  S
C2093      C2094   1.397       .  A
C2093      H2097   1.084       .  S
C2094      O2098   1.371       .  S
O2096      H2100   0.991       .  S
O2098      H2099   0.992       .  S
N2101      C2106   1.353       .  A
N2101      C2105   1.352       .  A
N2101      H2133   1.041       .  S
N2102      C2109   1.351       .  A
N2102      C2110   1.351       .  A
N2103      C2108   1.354       .  A
N2103      C2107   1.353       .  A
N2103      H2134   1.040       .  S
N2104      C2111   1.351       .  A
N2104      C2112   1.351       .  A
C2105      C2113   1.387       .  A
C2105      C2121   1.415       .  A
C2106      C2122   1.415       .  A
C2106      C2114   1.387       .  A
C2107      C2115   1.387       .  A
C2107      C2124   1.416       .  A
C2108      C2123   1.417       .  A
C2108      C2116   1.387       .  A
C2109      C2121   1.414       .  A
C2109      C2117   1.387       .  A
C2110      C2124   1.413       .  A
C2110      C2118   1.386       .  A
C2111      C2119   1.385       .  A
C2111      C2122   1.412       .  A
C2112      C2120   1.386       .  A
C2112      C2123   1.414       .  A
C2113      C2114   1.377       .  A
C2113      H2125   1.082       .  S
C2114      H2126   1.082       .  S
C2115      C2116   1.378       .  A
C2115      H2127   1.082       .  S
C2116      H2128   1.082       .  S
C2117      C2118   1.375       .  A
C2117      H2129   1.082       .  S
C2118      H2130   1.082       .  S
C2119      C2120   1.376       .  A
C2119      H2131   1.082       .  S
C2120      H2132   1.082       .  S
O2135      C2146   1.291       .  A
O2136      C2147   1.293       .  A
O2137      C2148   1.292       .  A
O2138      C2149   1.293       .  A
O2141      C2147   1.296       .  A
O2141     Zr2143   2.461   1_655  S
O2142      C2146   1.293       .  A
Zr2143     O2151   2.341   1_455  S
C2146      C2389   1.473       .  S
C2147      C2380   1.488       .  S
C2148      C2341   1.477       .  S
C2149      C2329   1.477       .  S
H2150      O2151   0.965       .  S
H2152      O2153   0.967       .  S
O2154      C2177   1.292   1_455  A
O2154     Zr2170   2.437       .  S
O2155      C2178   1.291       .  A
O2155     Zr2171   2.432   1_556  S
O2156      C2179   1.292       .  A
O2156     Zr2172   2.433   1_566  S
O2157      C2180   1.292       .  A
O2157     Zr2173   2.437   1_565  S
O2158      C2181   1.293       .  A
O2159      C2182   1.293       .  A
O2160      C2183   1.292   1_565  A
O2160     Zr2174   2.437   1_565  S
O2161      C2184   1.289       .  A
O2162      C2183   1.293       .  A
O2162     Zr2172   2.449   1_556  S
O2163      C2184   1.295       .  A
O2163     Zr2173   2.451       .  S
O2164      C2179   1.292       .  A
O2164     Zr2170   2.437   1_655  S
O2165      C2182   1.292       .  A
O2165     Zr2171   2.436       .  S
O2166      C2181   1.294       .  A
O2167      C2180   1.294   1_554  A
O2168      C2177   1.294       .  A
O2168     Zr2174   2.449   1_565  S
O2169      C2178   1.291       .  A
Zr2170     O2176   2.345   1_455  S
Zr2171     O2186   2.345   1_554  S
Zr2172     O2176   2.338   1_544  S
Zr2173     O2188   2.341   1_545  S
Zr2174     O2176   2.334   1_545  S
C2177      C2368   1.481       .  S
C2178      C2356   1.470       .  S
C2179      C2260   1.468       .  S
C2180      C2284   1.478       .  S
C2181      C2293   1.488       .  S
C2182      C2269   1.477       .  S
C2183      C2308   1.479       .  S
C2184      C2317   1.472       .  S
H2185      O2186   0.966       .  S
H2187      O2188   0.967       .  S
N2189      C2194   1.352       .  A
N2189      C2193   1.352       .  A
N2189      H2221   1.041       .  S
N2190      C2197   1.351       .  A
N2190      C2198   1.351       .  A
N2191      C2196   1.352       .  A
N2191      C2195   1.352       .  A
N2191      H2222   1.040       .  S
N2192      C2199   1.349       .  A
N2192      C2200   1.349       .  A
C2193      C2201   1.386       .  A
C2193      C2209   1.413       .  A
C2194      C2210   1.413       .  A
C2194      C2202   1.387       .  A
C2195      C2203   1.387       .  A
C2195      C2212   1.414       .  A
C2196      C2211   1.414       .  A
C2196      C2204   1.387       .  A
C2197      C2209   1.412       .  A
C2197      C2205   1.386       .  A
C2198      C2212   1.413       .  A
C2198      C2206   1.386       .  A
C2199      C2207   1.387       .  A
C2199      C2210   1.410       .  A
C2200      C2208   1.386       .  A
C2200      C2211   1.409       .  A
C2201      C2202   1.377       .  A
C2201      H2213   1.082       .  S
C2202      H2214   1.082       .  S
C2203      C2204   1.377       .  A
C2203      H2215   1.082       .  S
C2204      H2216   1.083       .  S
C2205      C2206   1.375       .  A
C2205      H2217   1.082       .  S
C2206      H2218   1.082       .  S
C2207      C2208   1.374       .  A
C2207      H2219   1.082       .  S
C2208      H2220   1.082       .  S
C2209      C2344   1.490       .  S
C2210      C2332   1.488       .  S
C2211      C2320   1.483       .  S
C2212      C2305   1.488       .  S
N2223      C2228   1.352       .  A
N2223      C2227   1.353       .  A
N2223      H2255   1.041   1_554  S
N2224      C2231   1.350       .  A
N2224      C2232   1.350       .  A
N2225      C2230   1.351       .  A
N2225      C2229   1.352       .  A
N2225      H2256   1.042       .  S
N2226      C2233   1.351       .  A
N2226      C2234   1.351       .  A
C2227      C2235   1.388       .  A
C2227      C2243   1.418       .  A
C2228      C2244   1.414       .  A
C2228      C2236   1.386       .  A
C2229      C2237   1.386   1_556  A
C2229      C2246   1.411       .  A
C2230      C2245   1.412       .  A
C2230      C2238   1.388   1_556  A
C2231      C2243   1.413   1_556  A
C2231      C2239   1.387       .  A
C2232      C2246   1.409       .  A
C2232      C2240   1.384       .  A
C2233      C2241   1.387       .  A
C2233      C2244   1.414   1_556  A
C2234      C2242   1.386       .  A
C2234      C2245   1.412       .  A
C2235      C2236   1.378       .  A
C2235      H2247   1.082       .  S
C2236      H2248   1.082       .  S
C2237      C2238   1.376       .  A
C2237      H2249   1.082       .  S
C2238      H2250   1.082       .  S
C2239      C2240   1.376       .  A
C2239      H2251   1.082       .  S
C2240      H2252   1.082       .  S
C2241      C2242   1.376       .  A
C2241      H2253   1.082       .  S
C2242      H2254   1.082       .  S
C2243      C2296   1.496       .  S
C2244      C2272   1.490       .  S
C2245      C2257   1.486       .  S
C2246      C2281   1.489       .  S
C2257      C2258   1.405       .  A
C2258      C2259   1.399       .  A
C2258      H2263   1.084       .  S
C2259      C2260   1.407       .  A
C2259      O2264   1.372       .  S
C2261      C2262   1.398       .  A
C2261      H2265   1.084       .  S
C2262      O2266   1.372       .  S
O2264      H2268   0.992       .  S
O2266      H2267   0.992       .  S
C2269      C2270   1.404   1_554  A
C2270      C2271   1.400       .  A
C2270      H2275   1.084       .  S
C2271      C2272   1.410   1_556  A
C2271      O2276   1.372       .  S
C2273      C2274   1.400       .  A
C2273      H2277   1.084       .  S
C2274      O2278   1.372       .  S
O2276      H2280   0.992       .  S
O2278      H2279   0.992       .  S
C2281      C2282   1.403       .  A
C2282      C2283   1.401       .  A
C2282      H2287   1.084       .  S
C2283      C2284   1.411       .  A
C2283      O2288   1.372       .  S
C2285      C2286   1.400       .  A
C2285      H2289   1.083       .  S
C2286      O2290   1.372       .  S
O2288      H2292   0.992       .  S
O2290      H2291   0.992       .  S
C2293      C2298   1.411   1_554  A
C2294      C2295   1.403       .  A
C2294      H2299   1.083       .  S
C2295      O2300   1.373       .  S
C2296      C2297   1.402   1_554  A
C2297      C2298   1.397       .  A
C2297      H2301   1.084       .  S
C2298      O2302   1.369       .  S
O2300      H2304   0.992       .  S
O2302      H2303   0.992       .  S
C2305      C2310   1.409       .  A
C2306      C2307   1.400       .  A
C2306      H2311   1.084       .  S
C2307      C2308   1.409   1_565  A
C2307      O2312   1.370       .  S
C2309      C2310   1.404       .  A
C2309      H2313   1.084       .  S
C2310      O2314   1.372       .  S
O2312      H2316   0.992       .  S
O2314      H2315   0.991       .  S
C2317      C2318   1.404   1_545  A
C2318      C2319   1.402       .  A
C2318      H2323   1.084       .  S
C2319      O2324   1.373       .  S
C2320      C2321   1.401       .  A
C2321      C2322   1.399       .  A
C2321      H2325   1.084       .  S
C2322      O2326   1.370       .  S
O2324      H2328   0.992       .  S
O2326      H2327   0.992       .  S
C2329      C2330   1.405       .  A
C2330      C2331   1.399       .  A
C2330      H2335   1.084       .  S
C2331      C2332   1.408       .  A
C2331      O2336   1.372       .  S
C2333      C2334   1.398       .  A
C2333      H2337   1.084       .  S
C2334      O2338   1.372       .  S
O2336      H2340   0.992       .  S
O2338      H2339   0.992       .  S
C2341      C2346   1.409       .  A
C2342      C2343   1.400       .  A
C2342      H2347   1.084       .  S
C2343      O2348   1.373       .  S
C2344      C2345   1.404       .  A
C2345      C2346   1.401       .  A
C2345      H2349   1.084       .  S
C2346      O2350   1.372       .  S
O2348      H2352   0.992       .  S
O2350      H2351   0.992       .  S
C2353      C2358   1.409       .  A
C2354      C2355   1.400       .  A
C2354      H2359   1.084       .  S
C2355      O2360   1.372       .  S
C2356      C2357   1.403       .  A
C2357      C2358   1.396       .  A
C2357      H2361   1.084       .  S
C2358      O2362   1.372       .  S
O2360      H2364   0.992       .  S
O2362      H2363   0.992       .  S
C2365      C2370   1.410       .  A
C2366      C2367   1.401       .  A
C2366      H2371   1.084       .  S
C2367      O2372   1.372       .  S
C2368      C2369   1.405       .  A
C2369      C2370   1.401       .  A
C2369      H2373   1.080       .  S
C2370      O2374   1.372       .  S
O2372      H2376   0.992       .  S
O2374      H2375   0.992       .  S
C2377      C2382   1.411       .  A
C2378      C2379   1.402       .  A
C2378      H2383   1.084       .  S
C2379      O2384   1.371       .  S
C2380      C2381   1.407       .  A
C2381      C2382   1.406       .  A
C2381      H2385   1.084       .  S
C2382      O2386   1.373       .  S
O2384      H2388   0.992       .  S
O2386      H2387   0.992       .  S
C2389      C2390   1.404       .  A
C2390      C2391   1.402       .  A
C2390      H2395   1.084       .  S
C2391      C2392   1.410       .  A
C2391      O2396   1.372       .  S
C2393      C2394   1.397       .  A
C2393      H2397   1.084       .  S
C2394      O2398   1.372       .  S
O2396      H2400   0.992       .  S
O2398      H2399   0.992       .  S
