geometry optimzed in LAMMPS
_audit_creation_date              2020-11-30 
_audit_creation_method            'lammps2cif' 
_symmetry_space_group_name_H-M    'P1' 
_symmetry_Int_Tables_number       1 
_symmetry_cell_setting            triclinic 
loop_ 
_symmetry_equiv_pos_as_xyz 
  x,y,z 
_cell_length_a                    40.68355771 
_cell_length_b                    40.788588850503274 
_cell_length_c                    42.24777701850272 
_cell_angle_alpha                 89.22773220395577 
_cell_angle_beta                  89.83387005707455 
_cell_angle_gamma                 89.88129394088 
loop_ 
_atom_site_label 
_atom_site_type_symbol 
_atom_site_fract_x 
_atom_site_fract_y 
_atom_site_fract_z 
_atom_site_charge 
C1          C  0.10515751  0.95864981  0.50428696    -0.02100
C2          C  0.97512340  0.88593298  0.49342447    -0.02100
C3          C  0.91312452  0.01804328  0.49076904    -0.02100
C4          C  0.04217909  0.09307974  0.50505142    -0.02100
C5          C  0.97114184  0.08627087  0.00286405    -0.02100
C6          C  0.92630335  0.94332376  0.00034222    -0.02100
C7          C  0.06494994  0.88956973  0.99308714    -0.02100
C8          C  0.10893783  0.03261594  0.99940867    -0.02100
C9          C  0.54377797  0.58445316  0.00681268    -0.02100
C10         C  0.41017892  0.51964812  0.01267682    -0.02100
C11         C  0.60700862  0.44831499  0.00008321    -0.02100
C12         C  0.47523015  0.38554836  0.00657509    -0.02100
In13       In  0.60929927  0.25683203  0.65014796     1.36900
C14         C  0.64239149  0.29380969  0.69034225     0.78000
O15         O  0.59777082  0.23623690  0.69826925    -0.60400
O16         O  0.55737673  0.24681457  0.66839035    -0.51300
C17         C  0.58625883  0.29500857  0.60288517     0.70700
O18         O  0.61384142  0.29874225  0.61576037    -0.46200
C19         C  0.64664564  0.20864806  0.62645904     0.75400
O20         O  0.61413820  0.30101661  0.68008379    -0.58100
O21         O  0.61862483  0.20363344  0.63856239    -0.48200
O22         O  0.65465637  0.26845085  0.67843239    -0.54500
C23         C  0.56705261  0.23826812  0.69568599     0.85600
O24         O  0.57008617  0.27091714  0.61362396    -0.56400
O25         O  0.65375800  0.23847159  0.62348923    -0.59700
In26       In  0.80321847  0.08036123  0.65352447     1.36900
C27         C  0.82234933  0.12145149  0.69826582     0.78000
O28         O  0.77995028  0.12499619  0.63146686    -0.60400
O29         O  0.74909033  0.08474406  0.64325111    -0.51300
C30         C  0.83865391  0.06172194  0.60289899     0.70700
O31         O  0.85150037  0.07299848  0.62751950    -0.46200
C32         C  0.79924904  0.02901555  0.69298281     0.75400
O33         O  0.79737278  0.10359708  0.70079988    -0.58100
O34         O  0.77457529  0.03962252  0.67799264    -0.48200
O35         O  0.83676872  0.11976743  0.67176015    -0.54500
C36         C  0.75096013  0.11392100  0.63310483     0.85600
O37         O  0.80779212  0.05946075  0.60418935    -0.56400
O38         O  0.82596986  0.04224250  0.68476966    -0.59700
In39       In  0.91362808  0.21534698  0.84968958     1.36900
C40         C  0.87985103  0.19260996  0.80107274     0.78000
O41         O  0.86601523  0.23599712  0.86822714    -0.60400
O42         O  0.90623620  0.26834980  0.86363372    -0.51300
C43         C  0.93004547  0.17668619  0.89914983     0.70700
O44         O  0.90643662  0.17095673  0.88092208    -0.46200
C45         C  0.96765221  0.21896628  0.81411345     0.75400
O46         O  0.88121217  0.17832443  0.82769097    -0.58100
O47         O  0.95379745  0.24416591  0.82514965    -0.48200
O48         O  0.89428182  0.21984036  0.79973635    -0.54500
C49         C  0.87610269  0.26500570  0.87010829     0.85600
O50         O  0.94463144  0.20341634  0.89298938    -0.56400
O51         O  0.95550576  0.19224486  0.82371481    -0.59700
In52       In  0.72593065  0.39873871  0.84102385     1.36900
C53         C  0.69691496  0.36483163  0.79525134     0.78000
O54         O  0.70919421  0.44666420  0.82061286    -0.60400
O55         O  0.75661251  0.42927679  0.80832775    -0.51300
C56         C  0.69192326  0.41417590  0.89234772     0.70700
O57         O  0.68777066  0.38773454  0.87771653    -0.46200
C58         C  0.77794805  0.36539028  0.86263824     0.75400
O59         O  0.68142126  0.38485438  0.81205612    -0.58100
O60         O  0.78038117  0.39478481  0.85315138    -0.48200
O61         O  0.72650255  0.36111706  0.80306796    -0.54500
C62         C  0.73457354  0.45067053  0.80397069     0.85600
O63         O  0.71502431  0.43185646  0.88186623    -0.56400
O64         O  0.74889430  0.35454148  0.86297170    -0.59700
In65       In  0.60554569  0.71108965  0.85216118     1.36900
C66         C  0.64572879  0.68490067  0.80931831     0.78000
O67         O  0.57504729  0.69484959  0.81173704    -0.60400
O68         O  0.56290741  0.74100726  0.83147242    -0.51300
C69         C  0.58137297  0.67376338  0.90012867     0.70700
O70         O  0.61114294  0.67495232  0.89211365    -0.46200
C71         C  0.64266914  0.76137843  0.87256447     0.75400
O72         O  0.63639766  0.66886395  0.83345634    -0.58100
O73         O  0.61359347  0.76511591  0.86274901    -0.48200
O74         O  0.63569827  0.71413578  0.80820005    -0.54500
C75         C  0.55774010  0.72049096  0.80981349     0.85600
O76         O  0.56327876  0.69280574  0.88419791    -0.56400
O77         O  0.65138871  0.73187258  0.87443499    -0.59700
In78       In  0.79581003  0.89452567  0.84705880     1.36900
C79         C  0.81904837  0.85269853  0.80515078     0.78000
O80         O  0.77087917  0.85062923  0.86775184    -0.60400
O81         O  0.74038741  0.89155533  0.85882447    -0.51300
C82         C  0.83176173  0.91349014  0.89684732     0.70700
O83         O  0.83350244  0.88573110  0.88428803    -0.46200
C84         C  0.79843857  0.94209792  0.80306647     0.75400
O85         O  0.83486208  0.85961232  0.82978017    -0.58100
O86         O  0.77201595  0.93383628  0.81693253    -0.48200
O87         O  0.79101637  0.86570230  0.80318804    -0.54500
C88         C  0.74202638  0.86180458  0.86744313     0.85600
O89         O  0.80995404  0.93190667  0.88485182    -0.56400
O90         O  0.82367840  0.92804115  0.81388818    -0.59700
In91       In  0.92280535  0.76914408  0.65603371     1.36900
C92         C  0.88202571  0.79236213  0.69907409     0.78000
O93         O  0.87515603  0.75226231  0.63430737    -0.60400
O94         O  0.91201161  0.71680614  0.64373464    -0.51300
C95         C  0.94458626  0.80324244  0.60586403     0.70700
O96         O  0.92943199  0.81593352  0.62864795    -0.46200
C97         C  0.97376364  0.76325366  0.69643399     0.75400
O98         O  0.89751206  0.76574317  0.70226416    -0.58100
O99         O  0.96168327  0.73865956  0.68283486    -0.48200
O100        O  0.88614842  0.80675803  0.67274974    -0.54500
C101        C  0.88294628  0.72237265  0.63450683     0.85600
O102        O  0.94962252  0.77280742  0.60900137    -0.56400
O103        O  0.96160197  0.79011969  0.68710954    -0.59700
In104      In  0.73075729  0.58802608  0.65486428     1.36900
C105        C  0.70543691  0.62622353  0.69969538     0.78000
O106        O  0.70913997  0.55374434  0.69001160    -0.60400
O107        O  0.75983089  0.54739299  0.67939341    -0.51300
C108        C  0.69475056  0.56657850  0.60565520     0.70700
O109        O  0.69250874  0.59506336  0.61654591    -0.46200
C110        C  0.78304598  0.62272894  0.63496401     0.75400
O111        O  0.68977828  0.61962695  0.67486662    -0.58100
O112        O  0.78565197  0.59343627  0.64450451    -0.48200
O113        O  0.73428596  0.61504238  0.70036355    -0.54500
C114        C  0.73570315  0.53924794  0.69668480     0.85600
O115        O  0.71642643  0.54923029  0.61914848    -0.56400
O116        O  0.75376927  0.63266320  0.63316234    -0.59700
In117      In  0.43212610  0.26036277  0.84712288     1.36900
C118        C  0.39414050  0.29153142  0.80537699     0.78000
O119        O  0.48572838  0.25748666  0.82971072    -0.60400
O120        O  0.44909634  0.23615971  0.80185054    -0.51300
C121        C  0.44980936  0.29954017  0.89577247     0.70700
O122        O  0.43043237  0.30795504  0.87385969    -0.46200
C123        C  0.39638869  0.21055441  0.87063541     0.75400
O124        O  0.38486317  0.26591642  0.81964907    -0.58100
O125        O  0.42489858  0.20692789  0.85919359    -0.48200
O126        O  0.42192365  0.30193333  0.81383644    -0.54500
C127        C  0.47901671  0.24341385  0.80406007     0.85600
O128        O  0.46057972  0.27060244  0.89291525    -0.56400
O129        O  0.38776063  0.24004853  0.87331147    -0.59700
In130      In  0.24057972  0.08205453  0.84486104     1.36900
C131        C  0.21684686  0.12496188  0.80219233     0.78000
O132        O  0.26592579  0.12397547  0.86826530    -0.60400
O133        O  0.29589228  0.08534468  0.85230061    -0.51300
C134        C  0.20256736  0.06175119  0.89403873     0.70700
O135        O  0.19907907  0.08811753  0.87865872    -0.46200
C136        C  0.24257994  0.03405924  0.80304625     0.75400
O137        O  0.20344240  0.12038143  0.82876680    -0.58100
O138        O  0.26740067  0.04153073  0.81927063    -0.48200
O139        O  0.24300661  0.10899263  0.79830895    -0.54500
C140        C  0.29470400  0.11353021  0.86397917     0.85600
O141        O  0.22687115  0.04499159  0.88488207    -0.56400
O142        O  0.21652733  0.04879870  0.81084159    -0.59700
In143      In  0.28972247  0.38958969  0.66048397     1.36900
C144        C  0.32540033  0.35842317  0.70401590     0.78000
O145        O  0.28094849  0.44267022  0.67379108    -0.60400
O146        O  0.26693961  0.40461804  0.70575630    -0.51300
C147        C  0.33146221  0.40922473  0.61558766     0.70700
O148        O  0.33607911  0.38398032  0.63240025    -0.46200
C149        C  0.23867792  0.35642547  0.63604045     0.75400
O150        O  0.33114328  0.38747419  0.69532809    -0.58100
O151        O  0.23586904  0.38372003  0.64939662    -0.48200
O152        O  0.30225801  0.34485285  0.68922768    -0.54500
C153        C  0.27027338  0.43500564  0.70101338     0.85600
O154        O  0.30447865  0.42354656  0.62081525    -0.56400
O155        O  0.26802604  0.34706509  0.63312850    -0.59700
In156      In  0.10074596  0.21242693  0.66085862     1.36900
C157        C  0.14517520  0.18744521  0.70083986     0.78000
O158        O  0.14392185  0.23444943  0.63617625    -0.60400
O159        O  0.10510549  0.26669869  0.64711077    -0.51300
C160        C  0.07814057  0.17534532  0.61349754     0.70700
O161        O  0.06097756  0.19793405  0.62533862    -0.46200
C162        C  0.05524650  0.21906735  0.70597032     0.75400
O163        O  0.13491675  0.17170268  0.67743050    -0.58100
O164        O  0.06340200  0.24290503  0.68829828    -0.48200
O165        O  0.13329244  0.21586985  0.70308534    -0.54500
C166        C  0.13399922  0.26364721  0.63674117     0.85600
O167        O  0.10599908  0.17213310  0.62582399    -0.56400
O168        O  0.06830917  0.19216050  0.69845352    -0.59700
In169      In  0.29823912  0.56906087  0.84665946     1.36900
C170        C  0.33449191  0.60910704  0.81108954     0.78000
O171        O  0.28187170  0.55464225  0.79867292    -0.60400
O172        O  0.28506284  0.51676845  0.83305800    -0.51300
C173        C  0.33461074  0.54626956  0.89529302     0.70700
O174        O  0.34735584  0.55739312  0.87024797    -0.46200
C175        C  0.24678885  0.60474012  0.86582772     0.75400
O176        O  0.34141562  0.57933080  0.81609699    -0.58100
O177        O  0.24335989  0.57886410  0.85018359    -0.48200
O178        O  0.30989537  0.61925523  0.82627159    -0.54500
C179        C  0.27907965  0.52450716  0.80462870     0.85600
O180        O  0.30356467  0.54585502  0.89479643    -0.56400
O181        O  0.27616250  0.61051916  0.87358038    -0.59700
In182      In  0.11944581  0.76231141  0.84046217     1.36900
C183        C  0.16075338  0.78440980  0.79611303     0.78000
O184        O  0.16550725  0.73956926  0.86095994    -0.60400
O185        O  0.12436929  0.70877891  0.85541033    -0.51300
C186        C  0.10003514  0.79851434  0.88980968     0.70700
O187        O  0.12198467  0.80657442  0.87014397    -0.46200
C188        C  0.06777155  0.76329840  0.80070076     0.75400
O189        O  0.15937341  0.79663737  0.82332972    -0.58100
O190        O  0.07986003  0.73706699  0.81210829    -0.48200
O191        O  0.14228683  0.76000191  0.79229620    -0.54500
C192        C  0.15423530  0.71098647  0.86331078     0.85600
O193        O  0.08764941  0.77068644  0.88475251    -0.56400
O194        O  0.08055417  0.78887688  0.81159483    -0.59700
In195      In  0.24104948  0.90173508  0.65108672     1.36900
C196        C  0.21928470  0.85826260  0.69368042     0.78000
O197        O  0.26164254  0.85624734  0.62906572    -0.60400
O198        O  0.29469433  0.89503963  0.63728411    -0.51300
C199        C  0.20348216  0.92261919  0.60286783     0.70700
O200        O  0.19695921  0.89909531  0.62135661    -0.46200
C201        C  0.24090266  0.95057740  0.69289411     0.75400
O202        O  0.20404884  0.86498878  0.66849640    -0.58100
O203        O  0.26684786  0.94093071  0.67923528    -0.48200
O204        O  0.24610276  0.87340441  0.69666880    -0.54500
C205        C  0.29101754  0.86565569  0.62875149     0.85600
O206        O  0.23112155  0.93567039  0.60793894    -0.56400
O207        O  0.21516930  0.93708325  0.68311470    -0.59700
In208      In  0.42407864  0.71422663  0.66129747     1.36900
C209        C  0.39507697  0.67783362  0.70610071     0.78000
O210        O  0.47779394  0.71524719  0.67516383    -0.60400
O211        O  0.44278866  0.73819116  0.70473921    -0.51300
C212        C  0.43678361  0.67473074  0.61243100     0.70700
O213        O  0.41244014  0.67130902  0.63067514    -0.46200
C214        C  0.39032044  0.76643722  0.63876519     0.75400
O215        O  0.38354885  0.70483239  0.69619374    -0.58100
O216        O  0.41979558  0.76872553  0.64758430    -0.48200
O217        O  0.42050225  0.66856236  0.69174245    -0.54500
C218        C  0.47217593  0.72913862  0.70117338     0.85600
O219        O  0.45410276  0.69967114  0.61825196    -0.56400
O220        O  0.37934932  0.73757028  0.64002852    -0.59700
C221        C  0.60570871  0.52094306  0.50325424    -0.02100
C222        C  0.46918889  0.57936046  0.51310042    -0.02100
C223        C  0.54785399  0.38244038  0.49667092    -0.02100
C224        C  0.41207640  0.44221667  0.50437233    -0.02100
In225      In  0.79391915  0.88635948  0.14928353     1.36900
C226        C  0.80936672  0.84583765  0.19616765     0.78000
O227        O  0.82022992  0.92232254  0.18067653    -0.60400
O228        O  0.76870044  0.92712562  0.17487620    -0.51300
C229        C  0.83374221  0.90535535  0.10208251     0.70700
O230        O  0.84021542  0.88241668  0.12135496    -0.46200
C231        C  0.74324794  0.85313145  0.12493854     0.75400
O232        O  0.82503448  0.84688083  0.17030639    -0.58100
O233        O  0.74105906  0.88274955  0.13316934    -0.48200
O234        O  0.78447785  0.86413308  0.19728886    -0.54500
C235        C  0.79423131  0.93662275  0.18915639     0.85600
O236        O  0.80595198  0.91847246  0.10639908    -0.56400
O237        O  0.77190809  0.84162456  0.12667912    -0.59700
In238      In  0.60597340  0.70943154  0.15843677     1.36900
C239        C  0.64880797  0.69363836  0.20308065     0.78000
O240        O  0.64842864  0.73042477  0.13163976    -0.60400
O241        O  0.61106682  0.76354582  0.14515947    -0.51300
C242        C  0.58559631  0.66915727  0.11239819     0.70700
O243        O  0.60703372  0.66123338  0.13250944    -0.46200
C244        C  0.55730403  0.71049149  0.20096549     0.75400
O245        O  0.64627423  0.67753918  0.17786559    -0.58100
O246        O  0.56361803  0.73516018  0.18355565    -0.48200
O247        O  0.63128774  0.71901569  0.20419692    -0.54500
C248        C  0.63918919  0.75989523  0.13300899     0.85600
O249        O  0.57464890  0.69797627  0.11566608    -0.56400
O250        O  0.57352082  0.68522618  0.19397404    -0.59700
In251      In  0.73293307  0.58679292  0.35110629     1.36900
C252        C  0.71602568  0.62992587  0.30579351     0.78000
O253        O  0.75608206  0.62981331  0.37545034    -0.60400
O254        O  0.78594227  0.58902019  0.36393761    -0.51300
C255        C  0.69570276  0.56578894  0.40019973     0.70700
O256        O  0.68723628  0.58806108  0.38087763    -0.46200
C257        C  0.73310512  0.53747753  0.31058455     0.75400
O258        O  0.70086246  0.62697707  0.33185062    -0.58100
O259        O  0.75869137  0.54549754  0.32543383    -0.48200
O260        O  0.74111717  0.61201508  0.30364059    -0.54500
C261        C  0.78458288  0.61775904  0.37456093     0.85600
O262        O  0.72383402  0.55408668  0.39462412    -0.56400
O263        O  0.70748752  0.55261288  0.31891490    -0.59700
In264      In  0.91855643  0.76087408  0.34057178     1.36900
C265        C  0.87454781  0.77923995  0.29765113     0.78000
O266        O  0.94762232  0.78323981  0.30186262    -0.60400
O267        O  0.96365697  0.73685207  0.31938996    -0.51300
C268        C  0.93686237  0.80041084  0.38744940     0.70700
O269        O  0.90927759  0.80222825  0.37420920    -0.46200
C270        C  0.88899415  0.70861023  0.36591823     0.75400
O271        O  0.88298718  0.79700901  0.32042655    -0.58100
O272        O  0.91433300  0.70597291  0.34896767    -0.48200
O273        O  0.88730934  0.75112222  0.29780058    -0.54500
C274        C  0.96689741  0.75925886  0.29865065     0.85600
O275        O  0.95537482  0.77826438  0.37664424    -0.56400
O276        O  0.88106811  0.73773352  0.37180071    -0.59700
In277      In  0.28350482  0.57478838  0.16643112     1.36900
C278        C  0.31617716  0.61053507  0.20791014     0.78000
O279        O  0.26009045  0.61342848  0.13649174    -0.60400
O280        O  0.22800052  0.58022226  0.15929604    -0.51300
C281        C  0.32568260  0.55724970  0.11993813     0.70700
O282        O  0.30267769  0.53891382  0.12965774    -0.46200
C283        C  0.26643587  0.52926202  0.20920220     0.75400
O284        O  0.32478459  0.58211620  0.19973097    -0.58100
O285        O  0.27375587  0.52221828  0.18091770    -0.48200
O286        O  0.29159287  0.62171946  0.19323460    -0.54500
C287        C  0.23080271  0.60619854  0.14313195     0.85600
O288        O  0.32695656  0.58433937  0.13377244    -0.56400
O289        O  0.26597186  0.55945725  0.21463033    -0.59700
In290      In  0.10654674  0.76642510  0.15389081     1.36900
C291        C  0.14031379  0.79552591  0.19992147     0.78000
O292        O  0.07342283  0.73583650  0.18462319    -0.60400
O293        O  0.06041228  0.78557064  0.17619213    -0.51300
C294        C  0.09166371  0.79950774  0.10114977     0.70700
O295        O  0.11922878  0.80102630  0.11460224    -0.46200
C296        C  0.13921822  0.71289935  0.13506620     0.75400
O297        O  0.11973013  0.81061887  0.18306314    -0.58100
O298        O  0.10990273  0.71197554  0.14514265    -0.48200
O299        O  0.14520957  0.76638185  0.19179628    -0.54500
C300        C  0.05426550  0.75929362  0.19093508     0.85600
O301        O  0.07202269  0.77912907  0.11352943    -0.56400
O302        O  0.15078205  0.74148826  0.13240925    -0.59700
In303      In  0.23098968  0.88481716  0.35442239     1.36900
C304        C  0.20433944  0.84744623  0.31027546     0.78000
O305        O  0.20688187  0.92220085  0.32243683    -0.60400
O306        O  0.25880183  0.92193381  0.32399869    -0.51300
C307        C  0.19767522  0.90484940  0.40605436     0.70700
O308        O  0.19557582  0.87613813  0.39561788    -0.46200
C309        C  0.28393953  0.85176708  0.37482825     0.75400
O310        O  0.18783597  0.86190430  0.33123299    -0.58100
O311        O  0.28541855  0.88090549  0.36422815    -0.48200
O312        O  0.23496506  0.84948473  0.31369712    -0.54500
C313        C  0.23318236  0.93329996  0.31085944     0.85600
O314        O  0.21856901  0.92238642  0.39149752    -0.56400
O315        O  0.25512692  0.84060017  0.37706050    -0.59700
In316      In  0.42188702  0.70329062  0.35253550     1.36900
C317        C  0.38478194  0.67285675  0.31031729     0.78000
O318        O  0.37637131  0.72755944  0.37086769    -0.60400
O319        O  0.41751825  0.75824000  0.36287470    -0.51300
C320        C  0.43889727  0.67054866  0.40534400     0.70700
O321        O  0.41092362  0.66912564  0.39277327    -0.46200
C322        C  0.47178750  0.70626490  0.31143657     0.75400
O323        O  0.39923990  0.65785861  0.33245137    -0.58100
O324        O  0.45694462  0.73144572  0.32124684    -0.48200
O325        O  0.38797693  0.70355199  0.31083695    -0.54500
C326        C  0.38750230  0.75637568  0.37047670     0.85600
O327        O  0.45811558  0.69081765  0.39207507    -0.56400
O328        O  0.46285960  0.68000043  0.32479007    -0.59700
In329      In  0.28792021  0.38558802  0.34885588     1.36900
C330        C  0.32270303  0.34807386  0.31084414     0.78000
O331        O  0.26324243  0.34215069  0.37003778    -0.60400
O332        O  0.23353264  0.38402441  0.36004508    -0.51300
C333        C  0.32777324  0.40482058  0.39634359     0.70700
O334        O  0.33262491  0.41293724  0.36792924    -0.46200
C335        C  0.26706281  0.42902432  0.30605430     0.75400
O336        O  0.33281619  0.37503834  0.32115562    -0.58100
O337        O  0.27108994  0.43620401  0.33487033    -0.48200
O338        O  0.29608911  0.33840721  0.32291822    -0.54500
C339        C  0.23461905  0.35428298  0.36885168     0.85600
O340        O  0.30207978  0.38801575  0.40040367    -0.56400
O341        O  0.27159447  0.39934219  0.30004962    -0.59700
In342      In  0.09411198  0.21179541  0.34336106     1.36900
C343        C  0.13688465  0.18998834  0.30103462     0.78000
O344        O  0.05532996  0.24239816  0.31666722    -0.60400
O345        O  0.05654191  0.19091751  0.31186896    -0.51300
C346        C  0.07063255  0.17451099  0.39125499     0.70700
O347        O  0.06540714  0.20506152  0.38900999    -0.46200
C348        C  0.13189386  0.25876215  0.36758580     0.75400
O349        O  0.13197587  0.17626232  0.32755996    -0.58100
O350        O  0.10411159  0.26440369  0.35530367    -0.48200
O351        O  0.12078670  0.21600529  0.29658513    -0.54500
C352        C  0.04399248  0.21765527  0.30274168     0.85600
O353        O  0.08728090  0.16318206  0.36878330    -0.56400
O354        O  0.13911080  0.22878598  0.36961194    -0.59700
In355      In  0.41890350  0.25603547  0.16026777     1.36900
C356        C  0.38736216  0.29129149  0.20312507     0.78000
O357        O  0.37165129  0.23789366  0.14034493    -0.60400
O358        O  0.40946425  0.20288756  0.14787041    -0.51300
C359        C  0.43532320  0.29509020  0.11111731     0.70700
O360        O  0.42617690  0.30554869  0.13756989    -0.46200
C361        C  0.46516925  0.23293727  0.19984461     0.75400
O362        O  0.37361935  0.26924524  0.18719499    -0.58100
O363        O  0.43479081  0.22970768  0.20442256    -0.48200
O364        O  0.41676839  0.29685590  0.19547014    -0.54500
C365        C  0.38001374  0.20805515  0.13986666     0.85600
O366        O  0.43650229  0.26425627  0.10958272    -0.56400
O367        O  0.47229162  0.24559144  0.17320528    -0.59700
In368      In  0.22809660  0.07526419  0.16380740     1.36900
C369        C  0.20672886  0.11551043  0.20845938     0.78000
O370        O  0.20848977  0.03302785  0.19178509    -0.60400
O371        O  0.26017096  0.03777824  0.19049023    -0.51300
C372        C  0.19150585  0.05822673  0.11329570     0.70700
O373        O  0.17938329  0.06809562  0.13894810    -0.46200
C374        C  0.27573923  0.11375368  0.14118372     0.75400
O375        O  0.19392125  0.11377743  0.18134581    -0.58100
O376        O  0.28007485  0.08362356  0.14749350    -0.48200
O377        O  0.23106012  0.09693572  0.21265363    -0.54500
C378        C  0.23573261  0.02306472  0.20243250     0.85600
O379        O  0.22243091  0.05544349  0.11388949    -0.56400
O380        O  0.24660021  0.12346778  0.14481661    -0.59700
In381      In  0.59903397  0.25046433  0.34576408     1.36900
C382        C  0.62811257  0.28549811  0.30128915     0.78000
O383        O  0.64598208  0.23038416  0.36640504    -0.60400
O384        O  0.60529742  0.19838164  0.36434866    -0.51300
C385        C  0.58304259  0.29290285  0.39133352     0.70700
O386        O  0.60417851  0.29901425  0.37037497    -0.46200
C387        C  0.55547758  0.22872343  0.30424203     0.75400
O388        O  0.64269577  0.26332840  0.31706041    -0.58100
O389        O  0.54679468  0.24237643  0.32964093    -0.48200
O390        O  0.59858644  0.29037182  0.30901076    -0.54500
C391        C  0.63538928  0.20171723  0.37080904     0.85600
O392        O  0.57048062  0.26465566  0.38934407    -0.56400
O393        O  0.58582742  0.22333080  0.30198752    -0.59700
In394      In  0.78387696  0.07209604  0.33861175     1.36900
C395        C  0.80096736  0.11569187  0.29504461     0.78000
O396        O  0.81039206  0.03762501  0.30692954    -0.60400
O397        O  0.75888986  0.03189599  0.31078194    -0.51300
C398        C  0.82504811  0.05573079  0.38547613     0.70700
O399        O  0.83052896  0.07872743  0.36613217    -0.46200
C400        C  0.73230848  0.10203065  0.36522005     0.75400
O401        O  0.81681863  0.11129196  0.32031551    -0.58100
O402        O  0.72985258  0.07350286  0.35428773    -0.48200
O403        O  0.77494401  0.09926466  0.29296355    -0.54500
C404        C  0.78506898  0.02334054  0.29700616     0.85600
O405        O  0.79816398  0.04093479  0.38087066    -0.56400
O406        O  0.76103238  0.11338581  0.36409825    -0.59700
In407      In  0.90686200  0.21231443  0.15360059     1.36900
C408        C  0.86657817  0.18835298  0.19736571     0.78000
O409        O  0.93944185  0.18793703  0.18906806    -0.60400
O410        O  0.94699811  0.23865609  0.17930350    -0.51300
C411        C  0.92799313  0.17378465  0.10618826     0.70700
O412        O  0.89825278  0.17685610  0.11396913    -0.46200
C413        C  0.87336777  0.26564888  0.13357379     0.75400
O414        O  0.87464472  0.17273584  0.17296190    -0.58100
O415        O  0.90314938  0.26745428  0.14174033    -0.48200
O416        O  0.87779853  0.21697897  0.19859548    -0.54500
C417        C  0.95476360  0.21368778  0.19588061     0.85600
O418        O  0.94702199  0.19258949  0.12086952    -0.56400
O419        O  0.86277084  0.23670091  0.13252330    -0.67700
In420      In  0.72294190  0.40060034  0.16353445     1.36900
C421        C  0.69676690  0.35939568  0.20528271     0.78000
O422        O  0.74208797  0.35320935  0.14373290    -0.60400
O423        O  0.77548385  0.39265964  0.14800751    -0.51300
C424        C  0.68967573  0.42105813  0.11270886     0.70700
O425        O  0.67641133  0.40780127  0.13658830    -0.46200
C426        C  0.72815588  0.45163960  0.20249065     0.75400
O427        O  0.68349010  0.36648612  0.17913741    -0.58100
O428        O  0.75225520  0.43400282  0.19456551    -0.48200
O429        O  0.72425943  0.37261162  0.20971882    -0.54500
C430        C  0.77131274  0.36296384  0.14073510     0.85600
O431        O  0.72040445  0.42479000  0.11498242    -0.56400
O432        O  0.70197129  0.44500129  0.18824133    -0.59700
C433        C  0.81963568  0.28736734  0.11601354    -0.11800
C434        C  0.85083126  0.29414826  0.12832303     0.05200
C435        C  0.85674451  0.32615256  0.13966395    -0.07100
C436        C  0.83084783  0.34895410  0.14126326    -0.07900
C437        C  0.79885502  0.34074122  0.13199539    -0.02400
C438        C  0.79380590  0.30993373  0.11787278     0.04400
N439        N  0.76270111  0.30057727  0.10541615     0.66900
H440        H  0.81455815  0.26347838  0.10621354     0.15800
H441        H  0.83552005  0.37262147  0.15170907     0.15500
N442        N  0.88806120  0.33577658  0.15138807     0.74600
O443        O  0.75835952  0.30344038  0.07594646    -0.38800
O444        O  0.74596951  0.27959426  0.12060398    -0.38800
O445        O  0.90522780  0.35494979  0.13449995    -0.39500
O446        O  0.89246106  0.33544369  0.18094246    -0.39600
C447        C  0.83398046  0.16301119  0.27798433    -0.11800
C448        C  0.81322863  0.13726361  0.26967469     0.05200
C449        C  0.80791427  0.13065715  0.23738254    -0.07100
C450        C  0.82472228  0.14869440  0.21430090    -0.07900
C451        C  0.84654543  0.17350969  0.22261835    -0.02400
C452        C  0.85056073  0.18128133  0.25487851     0.04400
N453        N  0.87270556  0.20608412  0.26504864     0.66900
H454        H  0.83824139  0.16836367  0.30271522     0.15800
H455        H  0.82137305  0.14252103  0.18962862     0.15500
N456        N  0.78755854  0.10435422  0.22732179     0.74600
O457        O  0.86081391  0.23323941  0.27337339    -0.38800
O458        O  0.90017383  0.19734246  0.27616185    -0.38800
O459        O  0.76028019  0.11131925  0.21475926    -0.39500
O460        O  0.80103990  0.07739490  0.22072542    -0.39600
C461        C  0.67922170  0.30441561  0.27635881    -0.11800
C462        C  0.64485961  0.30421185  0.27615759     0.05200
C463        C  0.62796257  0.32129805  0.25185312    -0.07100
C464        C  0.64573442  0.33827683  0.22869520    -0.07900
C465        C  0.68010368  0.33898010  0.22925304    -0.02400
C466        C  0.69696231  0.32157965  0.25332861     0.04400
N467        N  0.73195027  0.31992093  0.25452151     0.66900
H468        H  0.69263571  0.29123685  0.29468579     0.15800
H469        H  0.63235802  0.35146419  0.21034670     0.15500
N470        N  0.59300815  0.32089584  0.24923967     0.74600
O471        O  0.74663747  0.33757243  0.27426054    -0.38800
O472        O  0.74574758  0.29390427  0.24552303    -0.38800
O473        O  0.57725239  0.34635282  0.25666307    -0.39500
O474        O  0.58034619  0.30164280  0.22962533    -0.39600
C475        C  0.71254823  0.15315043  0.38884821    -0.11800
C476        C  0.70443657  0.12275217  0.37599112     0.05200
C477        C  0.67096636  0.11639749  0.36936677    -0.07100
C478        C  0.64787013  0.14200121  0.37086143    -0.07900
C479        C  0.65733661  0.17379548  0.37922860    -0.02400
C480        C  0.68959542  0.17849815  0.39057410     0.04400
N481        N  0.70007393  0.20885045  0.40350087     0.66900
H482        H  0.73761928  0.15819984  0.39591047     0.15800
H483        H  0.62288043  0.13738664  0.36330960     0.15500
N484        N  0.65976095  0.08478634  0.36027997     0.74600
O485        O  0.70150738  0.21095111  0.43323978    -0.38800
O486        O  0.71843366  0.22713370  0.38688100    -0.38800
O487        O  0.64503761  0.06745191  0.38081119    -0.39500
O488        O  0.65374044  0.07998379  0.33143714    -0.39600
C489        C  0.47790887  0.21770777  0.25607106    -0.11800
C490        C  0.48953119  0.22527240  0.22522934     0.05200
C491        C  0.52384755  0.22881169  0.22074201    -0.07100
C492        C  0.54495125  0.22778288  0.24678575    -0.07900
C493        C  0.53295211  0.22302855  0.27752743    -0.02400
C494        C  0.49946987  0.21638009  0.28202494     0.04400
N495        N  0.48763058  0.20726583  0.31274751     0.66900
H496        H  0.45192051  0.21378641  0.26028865     0.15800
H497        H  0.57093328  0.23219818  0.24295330     0.15500
N498        N  0.53823001  0.23356781  0.19019745     0.74600
O499        O  0.47781939  0.22939778  0.33110895    -0.38800
O500        O  0.49646019  0.17998824  0.32439280    -0.38800
O501        O  0.54851162  0.26180976  0.18277507    -0.39500
O502        O  0.55151308  0.20913653  0.17731097    -0.39600
C503        C  0.32430443  0.19143884  0.12347689    -0.11800
C504        C  0.35588212  0.18177003  0.13295960     0.05200
C505        C  0.36162321  0.14807110  0.13937025    -0.07100
C506        C  0.33533690  0.12591927  0.13943390    -0.07900
C507        C  0.30314852  0.13638991  0.13321787    -0.02400
C508        C  0.29808863  0.16935668  0.12351771     0.04400
N509        N  0.26660598  0.18145978  0.11415164     0.66900
H510        H  0.31936065  0.21687325  0.11736590     0.15800
H511        H  0.34004009  0.10061913  0.14622959     0.15500
N512        N  0.39344023  0.13568472  0.14712910     0.74600
O513        O  0.25038691  0.19821194  0.13366779    -0.38800
O514        O  0.26136443  0.18588570  0.08497556    -0.38800
O515        O  0.39962108  0.12894975  0.17573997    -0.39500
O516        O  0.40931714  0.12093865  0.12590860    -0.39600
C517        C  0.01141986  0.18826069  0.26325759    -0.11800
C518        C  0.01966255  0.21850028  0.27645176     0.05200
C519        C  0.00665473  0.24738875  0.26223211    -0.07100
C520        C  0.98621901  0.24518194  0.23559387    -0.07900
C521        C  0.97836500  0.21479896  0.22247448    -0.02400
C522        C  0.99138195  0.18607553  0.23670842     0.04400
N523        N  0.98580029  0.15425242  0.22418991     0.66900
H524        H  0.02121049  0.16562961  0.27317367     0.15800
H525        H  0.97610148  0.26752547  0.22536646     0.15500
N526        N  0.01360817  0.27921542  0.27401814     0.74600
O527        O  0.00820104  0.14158737  0.20760026    -0.38800
O528        O  0.96597582  0.13551103  0.23859403    -0.38800
O529        O  0.03353555  0.29705548  0.25869673    -0.39500
O530        O  0.99210947  0.29290800  0.29092711    -0.39600
C531        C  0.18062248  0.15096776  0.28734970    -0.11800
C532        C  0.15880001  0.17546078  0.27714648     0.05200
C533        C  0.15643922  0.18263289  0.24439153    -0.07100
C534        C  0.17387256  0.16367905  0.22281405    -0.07900
C535        C  0.19361878  0.13747006  0.23291261    -0.02400
C536        C  0.19798241  0.13194245  0.26575822     0.04400
N537        N  0.21797610  0.10597684  0.27803201     0.66900
H538        H  0.18324075  0.14544195  0.31239996     0.15800
H539        H  0.17078386  0.16877777  0.19773558     0.15500
N540        N  0.13489548  0.20726324  0.23202653     0.74600
O541        O  0.24540947  0.11329630  0.28984505    -0.38800
O542        O  0.20394616  0.08008978  0.28757187    -0.38800
O543        O  0.14743775  0.23345391  0.22136103    -0.39500
O544        O  0.10745231  0.19836265  0.22130318    -0.39600
C545        C  0.36923327  0.34491442  0.27394265    -0.11800
C546        C  0.33959771  0.33137036  0.28474357     0.05200
C547        C  0.32539690  0.30540869  0.26770746    -0.07100
C548        C  0.34128792  0.29347048  0.24093333    -0.07900
C549        C  0.37085736  0.30712828  0.23005995    -0.02400
C550        C  0.38467440  0.33352694  0.24674754     0.04400
N551        N  0.41338705  0.35038310  0.23600309     0.66900
H552        H  0.38020094  0.36542155  0.28607961     0.15800
H553        H  0.33018506  0.27319681  0.22856333     0.15500
N554        N  0.29439239  0.29142535  0.27608662     0.74600
O555        O  0.40960552  0.37722166  0.22122775    -0.38800
O556        O  0.43993299  0.34552519  0.25072137    -0.38800
O557        O  0.26956314  0.29974705  0.26001354    -0.39500
O558        O  0.29419666  0.26388805  0.29005444    -0.39600
C559        C  0.20999801  0.30355117  0.39061828    -0.11800
C560        C  0.20519471  0.33376353  0.37517277     0.05200
C561        C  0.17374710  0.34086787  0.36255802    -0.07100
C562        C  0.14932085  0.31671644  0.36295492    -0.07900
C563        C  0.15533174  0.28529545  0.37551809    -0.02400
C564        C  0.18560408  0.27946123  0.39106827     0.04400
N565        N  0.19265156  0.24929115  0.40714246     0.66900
H566        H  0.23354728  0.29786457  0.40135295     0.15800
H567        H  0.12613400  0.32210148  0.35139853     0.15500
N568        N  0.16634413  0.37148164  0.34746621     0.74600
O569        O  0.21074629  0.22868331  0.39343352    -0.38800
O570        O  0.19168344  0.24895080  0.43700876    -0.38800
O571        O  0.16546888  0.37267271  0.31761432    -0.39500
O572        O  0.14969906  0.39209200  0.36275002    -0.39600
C573        C  0.26408611  0.96876058  0.27239758    -0.11800
C574        C  0.23386717  0.95623565  0.28306754     0.05200
C575        C  0.20529550  0.96426272  0.26548572    -0.07100
C576        C  0.20743633  0.98463734  0.23876672    -0.07900
C577        C  0.23735546  0.99802582  0.22849091    -0.02400
C578        C  0.26618437  0.98945907  0.24555733     0.04400
N579        N  0.29782844  0.00154462  0.23673969     0.66900
H580        H  0.28644052  0.96257918  0.28506021     0.15800
H581        H  0.18489798  0.99042184  0.22622698     0.15500
N582        N  0.17360279  0.95182383  0.27369407     0.74600
O583        O  0.30933721  0.02534873  0.25189085    -0.38800
O584        O  0.31766687  0.98200913  0.22377169    -0.38800
O585        O  0.15317470  0.97114501  0.28610783    -0.39500
O586        O  0.16284596  0.92768240  0.25852997    -0.39600
C587        C  0.34188351  0.83789557  0.36248387    -0.11800
C588        C  0.31363881  0.83117051  0.38053127     0.05200
C589        C  0.31315687  0.80227124  0.39942346    -0.07100
C590        C  0.33911898  0.77975190  0.39764823    -0.07900
C591        C  0.36579612  0.78489571  0.37714486    -0.02400
C592        C  0.36768399  0.81509439  0.36033801     0.04400
N593        N  0.39336700  0.82174181  0.33812728     0.66900
H594        H  0.34282383  0.85979999  0.34767883     0.15800
H595        H  0.33755115  0.75714446  0.41137319     0.15500
N596        N  0.28654354  0.79483377  0.42035845     0.74600
O597        O  0.38866352  0.81463600  0.30951969    -0.38800
O598        O  0.41374846  0.84398553  0.34441896    -0.38800
O599        O  0.26658167  0.77273286  0.41259688    -0.39500
O600        O  0.29012254  0.80084968  0.44936563    -0.39600
C601        C  0.15779452  0.84488655  0.27358367    -0.11800
C602        C  0.18857776  0.83251432  0.28251831     0.05200
C603        C  0.20382088  0.80879002  0.26324494    -0.07100
C604        C  0.18752952  0.79731703  0.23646785    -0.07900
C605        C  0.15687307  0.80995629  0.22746455    -0.02400
C606        C  0.14218658  0.83447401  0.24614791     0.04400
N607        N  0.11119819  0.84885785  0.23835773     0.66900
H608        H  0.14593732  0.86365194  0.28756218     0.15800
H609        H  0.19927304  0.77863369  0.22230623     0.15500
N610        N  0.23570888  0.79595040  0.27001758     0.74600
O611        O  0.08601759  0.83877332  0.25298999    -0.38800
O612        O  0.11095709  0.87756523  0.22683243    -0.38800
O613        O  0.23783243  0.76715044  0.28112112    -0.39500
O614        O  0.25982975  0.80752941  0.25474677    -0.39600
C615        C  0.25866189  0.47130586  0.22562585    -0.11800
C616        C  0.26076337  0.50419478  0.23432171     0.05200
C617        C  0.26026587  0.51182719  0.26697020    -0.07100
C618        C  0.25979669  0.48671509  0.28970935    -0.07900
C619        C  0.26030817  0.45381023  0.28102682    -0.02400
C620        C  0.25849495  0.44613562  0.24842241     0.04400
N621        N  0.25749439  0.41317285  0.23753044     0.66900
H622        H  0.25841114  0.46486179  0.20081279     0.15800
H623        H  0.26095613  0.49324952  0.31447574     0.15500
N624        N  0.26249959  0.54464266  0.27801047     0.74600
O625        O  0.23026434  0.40204692  0.22836386    -0.38800
O626        O  0.28355178  0.40079439  0.22660800    -0.38800
O627        O  0.23713781  0.55743296  0.28993100    -0.39500
O628        O  0.29029855  0.55503929  0.28639730    -0.39600
C629        C  0.35528455  0.60943698  0.25202559    -0.11800
C630        C  0.33288526  0.62772841  0.23388575     0.05200
C631        C  0.32656329  0.66065025  0.24224753    -0.07100
C632        C  0.34366556  0.67456374  0.26739124    -0.07900
C633        C  0.36630058  0.65621944  0.28522635    -0.02400
C634        C  0.37168429  0.62305433  0.27753860     0.04400
N635        N  0.39411293  0.60261907  0.29465550     0.66900
H636        H  0.36010612  0.58395344  0.24664728     0.15800
H637        H  0.33896973  0.69999271  0.27309500     0.15500
N638        N  0.30308478  0.68061935  0.22593867     0.74600
O639        O  0.38247818  0.58246975  0.31463034    -0.38800
O640        O  0.42154978  0.59633537  0.28209362    -0.38800
O641        O  0.27615862  0.68657355  0.23964496    -0.39500
O642        O  0.31348343  0.70087185  0.20543363    -0.39600
C643        C  0.14984189  0.65370486  0.14559034    -0.11800
C644        C  0.15936924  0.68285267  0.13010728     0.05200
C645        C  0.19002877  0.68340186  0.11426240    -0.07100
C646        C  0.21116464  0.65646160  0.11644922    -0.07900
C647        C  0.20328868  0.62877406  0.13489726    -0.02400
C648        C  0.17144061  0.62692213  0.14848960     0.04400
N649        N  0.16092478  0.59932429  0.16698234     0.66900
H650        H  0.12631112  0.65244542  0.15764833     0.15800
H651        H  0.23502590  0.65831669  0.10506442     0.15500
N652        N  0.20105575  0.71131229  0.09658160     0.74600
O653        O  0.16189275  0.60135183  0.19674644    -0.38800
O654        O  0.14054103  0.57991703  0.15486272    -0.38800
O655        O  0.22233598  0.72958582  0.10891950    -0.39500
O656        O  0.19941482  0.71031743  0.06679034    -0.39600
C657        C  0.98355472  0.77959781  0.24598656    -0.11800
C658        C  0.98938481  0.75755696  0.27113486     0.05200
C659        C  0.01475366  0.73410335  0.26793047    -0.07100
C660        C  0.03425664  0.73419003  0.24062692    -0.07900
C661        C  0.02915760  0.75708733  0.21612046    -0.02400
C662        C  0.00286403  0.77955178  0.21868600     0.04400
N663        N  0.99426065  0.80174331  0.19362391     0.66900
H664        H  0.96342046  0.79700704  0.24717622     0.15800
H665        H  0.05445750  0.71687858  0.23924205     0.15500
N666        N  0.02212076  0.71059154  0.29217306     0.74600
O667        O  0.97067542  0.79406763  0.17586746    -0.38800
O668        O  0.00089013  0.83172536  0.19679501    -0.38800
O669        O  0.01343369  0.68128211  0.28804256    -0.39500
O670        O  0.04634508  0.71601333  0.30992585    -0.39600
C671        C  0.70647831  0.51751054  0.26230498    -0.11800
C672        C  0.73280604  0.51472980  0.28351295     0.05200
C673        C  0.75839670  0.49243238  0.27659058    -0.07100
C674        C  0.75668962  0.47328666  0.24938561    -0.07900
C675        C  0.73006437  0.47570626  0.22845902    -0.02400
C676        C  0.70487623  0.49860783  0.23503847     0.04400
N677        N  0.67774164  0.50396666  0.21426683     0.66900
H678        H  0.68698350  0.53511737  0.26648074     0.15800
H679        H  0.77615559  0.45568396  0.24512514     0.15500
N680        N  0.78599121  0.48793539  0.29694364     0.74600
O681        O  0.65029442  0.49185940  0.22195026    -0.38800
O682        O  0.67814532  0.52920228  0.19664604    -0.38800
O683        O  0.78676947  0.46265953  0.31449074    -0.39500
O684        O  0.81284239  0.50111864  0.28895122    -0.39600
C685        C  0.84340367  0.62769813  0.36551764    -0.11800
C686        C  0.81450125  0.63692145  0.38118639     0.05200
C687        C  0.81408473  0.66681040  0.39768385    -0.07100
C688        C  0.84085496  0.68803320  0.39525227    -0.07900
C689        C  0.86778103  0.68085667  0.37575207    -0.02400
C690        C  0.86973685  0.64941274  0.36214668     0.04400
N691        N  0.89662884  0.63970615  0.34262958     0.66900
H692        H  0.84454339  0.60462960  0.35309450     0.15800
H693        H  0.83921773  0.71155593  0.40682006     0.15500
N694        N  0.78644749  0.67706357  0.41592814     0.74600
O695        O  0.91736897  0.61989150  0.35417416    -0.38800
O696        O  0.89283487  0.64060429  0.31298959    -0.38800
O697        O  0.78870768  0.67560991  0.44570101    -0.39500
O698        O  0.76694075  0.69770844  0.40373149    -0.39600
C699        C  0.53249511  0.68156411  0.24692089    -0.11800
C700        C  0.53472754  0.71056487  0.22879482     0.05200
C701        C  0.51744817  0.73849996  0.23942163    -0.07100
C702        C  0.49825277  0.73656916  0.26699387    -0.07900
C703        C  0.49565510  0.70739514  0.28474674    -0.02400
C704        C  0.51356284  0.67967036  0.27453671     0.04400
N705        N  0.51327729  0.64920582  0.29156688     0.66900
H706        H  0.54592646  0.65985543  0.23987402     0.15800
H707        H  0.48468987  0.75815681  0.27414659     0.15500
N708        N  0.51861290  0.76915251  0.22286081     0.74600
O709        O  0.49537134  0.62647454  0.28135249    -0.38800
O710        O  0.53827635  0.64160618  0.30772316    -0.38800
O711        O  0.49405886  0.77743196  0.20639206    -0.39500
O712        O  0.53672702  0.79137589  0.23374392    -0.39600
C713        C  0.67628293  0.67080931  0.28586455    -0.11800
C714        C  0.70364225  0.65105460  0.27958055     0.05200
C715        C  0.71531743  0.64930800  0.24795960    -0.07100
C716        C  0.69784402  0.66483034  0.22352275    -0.07900
C717        C  0.66918190  0.68249431  0.22980432    -0.02400
C718        C  0.65895310  0.68633966  0.26150561     0.04400
N719        N  0.62921007  0.70291782  0.26952165     0.66900
H720        H  0.66693255  0.67280161  0.30982159     0.15800
H721        H  0.70623749  0.66216926  0.19929835     0.15500
N722        N  0.74395674  0.63110777  0.23960344     0.74600
O723        O  0.60372970  0.68591889  0.27413966    -0.38800
O724        O  0.63123079  0.73042337  0.28267614    -0.38800
O725        O  0.74017874  0.60353124  0.22693764    -0.39500
O726        O  0.77004883  0.64681647  0.23389190    -0.39600
C727        C  0.76205403  0.96626257  0.22944035    -0.11800
C728        C  0.79281337  0.96024698  0.21565415     0.05200
C729        C  0.82088763  0.97462973  0.22949059    -0.07100
C730        C  0.81744729  0.99433655  0.25619173    -0.07900
C731        C  0.78664552  0.00019803  0.27009301    -0.02400
C732        C  0.75865965  0.98575247  0.25627186     0.04400
N733        N  0.72639836  0.99024319  0.26875619     0.66900
H734        H  0.74017111  0.95516210  0.21971207     0.15800
H735        H  0.83935543  0.00537103  0.26594138     0.15500
N736        N  0.85316830  0.97020255  0.21692646     0.74600
O737        O  0.70769691  0.01057834  0.25499229    -0.38800
O738        O  0.71360194  0.96682553  0.28420309    -0.38800
O739        O  0.86578654  0.99353651  0.20121317    -0.39500
O740        O  0.87206342  0.95013349  0.23081537    -0.39600
C741        C  0.83866619  0.79746773  0.21671250    -0.11800
C742        C  0.82049727  0.82571007  0.22314319     0.05200
C743        C  0.81680922  0.83578058  0.25483453    -0.07100
C744        C  0.83292595  0.81856650  0.27894476    -0.07900
C745        C  0.85301727  0.79165007  0.27225541    -0.02400
C746        C  0.85501219  0.78040616  0.24078683     0.04400
N747        N  0.87546050  0.75353742  0.23203092     0.66900
H748        H  0.84153502  0.78938422  0.19250354     0.15800
H749        H  0.83109059  0.82751344  0.30294749     0.15500
N750        N  0.79965293  0.86505370  0.26299414     0.74600
O751        O  0.86189158  0.72642157  0.22655048    -0.38800
O752        O  0.90274172  0.75975165  0.21899786    -0.38800
O753        O  0.77229849  0.86234552  0.27692577    -0.39500
O754        O  0.81613955  0.89086968  0.26682333    -0.39600
C755        C  0.68360478  0.84220975  0.13026482    -0.11800
C756        C  0.71410917  0.83247679  0.11798881     0.05200
C757        C  0.71671108  0.80085450  0.10483265    -0.07100
C758        C  0.69042481  0.77893193  0.10734572    -0.07900
C759        C  0.66141030  0.78721767  0.12334526    -0.02400
C760        C  0.65750352  0.81996067  0.13349638     0.04400
N761        N  0.62868950  0.83066975  0.14969538     0.66900
H762        H  0.68078980  0.86644208  0.14016673     0.15800
H763        H  0.69375797  0.75434016  0.09842542     0.15500
N764        N  0.74608222  0.78969504  0.08987891     0.74600
O765        O  0.62959905  0.83234334  0.17948620    -0.38800
O766        O  0.60868321  0.84880720  0.13483071    -0.38800
O767        O  0.76495626  0.77092535  0.10539350    -0.39500
O768        O  0.74651508  0.78833852  0.06005521    -0.39600
C769        C  0.39942838  0.43696383  0.44573914    -0.11800
C770        C  0.38865249  0.43127810  0.47701578     0.05200
C771        C  0.35871443  0.41246666  0.48026356    -0.07100
C772        C  0.33941691  0.40609994  0.45366942    -0.07900
C773        C  0.34974680  0.41393838  0.42300963    -0.02400
C774        C  0.38103650  0.42836619  0.41919106     0.04400
N775        N  0.39589887  0.43307107  0.38884737     0.66900
H776        H  0.42276808  0.44855262  0.44128178     0.15800
H777        H  0.31651021  0.39297736  0.45718960     0.15500
N778        N  0.34824692  0.39598531  0.50873903     0.74600
O779        O  0.39620530  0.46162870  0.37701467    -0.38800
O780        O  0.41815893  0.41326079  0.38071705    -0.38800
O781        O  0.32135582  0.40484312  0.52091410    -0.39500
O782        O  0.35605578  0.36622175  0.51212339    -0.39600
C783        C  0.48344131  0.37511561  0.50556273    -0.11800
C784        C  0.51043341  0.39281185  0.49336588     0.05200
C785        C  0.50124773  0.41999458  0.47434187    -0.07100
C786        C  0.47135760  0.43640988  0.48040696    -0.07900
C787        C  0.44565692  0.42215904  0.49918724    -0.02400
C788        C  0.45140677  0.38840672  0.50711116     0.04400
N789        N  0.42564261  0.36579376  0.51416856     0.66900
H790        H  0.48636242  0.35039973  0.51402628     0.15800
H791        H  0.46756514  0.45941705  0.46793494     0.15500
N792        N  0.51523689  0.42331439  0.44335725     0.74600
O793        O  0.41469030  0.34954219  0.49130439    -0.38800
O794        O  0.42540813  0.35222292  0.54120915    -0.38800
O795        O  0.50551361  0.40438938  0.42195151    -0.39500
O796        O  0.54149200  0.43890001  0.43901355    -0.39600
C797        C  0.57178191  0.37074128  0.43976464    -0.11800
C798        C  0.55493629  0.35961090  0.46714578     0.05200
C799        C  0.54458151  0.32581178  0.46606877    -0.07100
C800        C  0.55424589  0.30540053  0.44129052    -0.07900
C801        C  0.57363415  0.31658573  0.41628546    -0.02400
C802        C  0.58223603  0.35002118  0.41558645     0.04400
N803        N  0.60086423  0.36429688  0.39025618     0.66900
H804        H  0.57679902  0.39595768  0.43528299     0.15800
H805        H  0.54638162  0.28000454  0.44195993     0.15500
N806        N  0.52395906  0.31057431  0.48929883     0.74600
O807        O  0.58558874  0.38029608  0.36916205    -0.38800
O808        O  0.63051446  0.37147669  0.39543942    -0.38800
O809        O  0.49494460  0.30385725  0.48105710    -0.39500
O810        O  0.53748209  0.29185430  0.50942784    -0.39600
C811        C  0.42951260  0.53722496  0.48724699    -0.11800
C812        C  0.45120074  0.54489422  0.51211967     0.05200
C813        C  0.45888962  0.51806033  0.53312560    -0.07100
C814        C  0.44415778  0.48741456  0.52955784    -0.07900
C815        C  0.42216695  0.47977435  0.50511298    -0.02400
C816        C  0.41404705  0.50645786  0.48409897     0.04400
N817        N  0.38991253  0.50464059  0.45970475     0.66900
H818        H  0.42445309  0.55490087  0.46877388     0.15800
H819        H  0.45189177  0.46808940  0.54576634     0.15500
N820        N  0.48502354  0.51880710  0.55561575     0.74600
O821        O  0.36180059  0.51620976  0.46556644    -0.38800
O822        O  0.39990225  0.50631967  0.43141487    -0.38800
O823        O  0.47787294  0.51587361  0.58458681    -0.39500
O824        O  0.51210237  0.50697397  0.54679373    -0.39600
C825        C  0.48545133  0.61649184  0.46466767    -0.11800
C826        C  0.46003341  0.60297039  0.48387644     0.05200
C827        C  0.42770802  0.61624817  0.47789143    -0.07100
C828        C  0.42216973  0.63800037  0.45242583    -0.07900
C829        C  0.44757995  0.64931901  0.43297284    -0.02400
C830        C  0.47969176  0.63861782  0.43970428     0.04400
N831        N  0.50727975  0.64925853  0.42140726     0.66900
H832        H  0.51100916  0.61143863  0.46929017     0.15800
H833        H  0.39732403  0.64673599  0.44827875     0.15500
N834        N  0.39976123  0.60953075  0.49743789     0.74600
O835        O  0.52612019  0.67034246  0.43320867    -0.38800
O836        O  0.51892250  0.62986050  0.40121329    -0.38800
O837        O  0.39129838  0.63129707  0.51682569    -0.39500
O838        O  0.37740930  0.59171592  0.48619800    -0.39600
C839        C  0.56254844  0.55796483  0.53182982    -0.11800
C840        C  0.57180119  0.54000327  0.50477279     0.05200
C841        C  0.54746596  0.53811524  0.48075271    -0.07100
C842        C  0.51628697  0.55199816  0.48485334    -0.07900
C843        C  0.50684684  0.56963341  0.51174776    -0.02400
C844        C  0.53181022  0.57343880  0.53531629     0.04400
N845        N  0.52692336  0.58999261  0.56453034     0.66900
H846        H  0.57823162  0.55884293  0.55231150     0.15800
H847        H  0.49834925  0.54824254  0.46630452     0.15500
N848        N  0.55152441  0.51912323  0.45306129     0.74600
O849        O  0.52058124  0.57291496  0.58889752    -0.38800
O850        O  0.54188918  0.61675777  0.56819443    -0.38800
O851        O  0.53185372  0.49566120  0.45062734    -0.39500
O852        O  0.56031625  0.53339562  0.42777117    -0.39600
C853        C  0.57402543  0.47075732  0.52589629    -0.11800
C854        C  0.59605175  0.48271012  0.50233683     0.05200
C855        C  0.60636466  0.45804200  0.48032411    -0.07100
C856        C  0.59521475  0.42534633  0.48312722    -0.07900
C857        C  0.56771149  0.41608881  0.50119043    -0.02400
C858        C  0.55946889  0.43905103  0.52521990     0.04400
N859        N  0.53968919  0.42919923  0.55165699     0.66900
H860        H  0.56811332  0.48645063  0.54551924     0.15800
H861        H  0.60897763  0.40735803  0.47030801     0.15500
N862        N  0.62716646  0.46407149  0.45375096     0.74600
O863        O  0.50875737  0.43071207  0.55032911    -0.38800
O864        O  0.55336905  0.41775002  0.57620801    -0.38800
O865        O  0.65525876  0.45084688  0.45400815    -0.39500
O866        O  0.61353111  0.46880722  0.42728556    -0.39600
C867        C  0.65879260  0.51986770  0.47165619    -0.11800
C868        C  0.62719467  0.53391804  0.47447058     0.05200
C869        C  0.62170522  0.56307607  0.45519217    -0.07100
C870        C  0.64383874  0.57120799  0.43075322    -0.07900
C871        C  0.67368287  0.55470624  0.42661980    -0.02400
C872        C  0.68155496  0.52941767  0.44839226     0.04400
N873        N  0.71282527  0.51352649  0.44840344     0.66900
H874        H  0.66623341  0.50089380  0.48835632     0.15800
H875        H  0.63842767  0.59257121  0.41610678     0.15500
N876        N  0.59832426  0.58841262  0.46247254     0.74600
O877        O  0.73385155  0.52246523  0.46840380    -0.38800
O878        O  0.71469958  0.48483151  0.43775952    -0.38800
O879        O  0.60879548  0.61303846  0.47714550    -0.39500
O880        O  0.57507028  0.59346086  0.44332932    -0.39600
C881        C  0.42764500  0.62027056  0.58689763    -0.11800
C882        C  0.44461790  0.65042410  0.58734481     0.05200
C883        C  0.46930246  0.65580006  0.56443265    -0.07100
C884        C  0.47662770  0.63166650  0.54258349    -0.07900
C885        C  0.46060264  0.60106839  0.54196055    -0.02400
C886        C  0.43504220  0.59578205  0.56460571     0.04400
N887        N  0.41536180  0.56676545  0.56494529     0.66900
H888        H  0.40819075  0.61559259  0.60393197     0.15800
H889        H  0.49559128  0.63720922  0.52528700     0.15500
N890        N  0.48689831  0.68592830  0.56163986     0.74600
O891        O  0.41916184  0.54551693  0.58656669    -0.38800
O892        O  0.39170585  0.56396915  0.54598200    -0.38800
O893        O  0.51661999  0.68611677  0.57010392    -0.39500
O894        O  0.47792201  0.70607856  0.54042837    -0.39600
C895        C  0.35017181  0.85128142  0.63373530    -0.11800
C896        C  0.31886724  0.84283101  0.62274795     0.05200
C897        C  0.31411434  0.81068741  0.61139063    -0.07100
C898        C  0.33893724  0.78718804  0.61481772    -0.07900
C899        C  0.36895777  0.79458938  0.62917724    -0.02400
C900        C  0.37520060  0.82769587  0.63694582     0.04400
N901        N  0.40597548  0.83798816  0.64941030     0.66900
H902        H  0.35475788  0.87593185  0.64190236     0.15800
H903        H  0.33393045  0.76236594  0.60734948     0.15500
N904        N  0.28415263  0.80078307  0.59690785     0.74600
O905        O  0.42577922  0.85233254  0.63084781    -0.38800
O906        O  0.40775469  0.84380088  0.67861574    -0.38800
O907        O  0.28368382  0.79838993  0.56715895    -0.39500
O908        O  0.26427084  0.78368325  0.61305269    -0.39600
C909        C  0.16500620  0.79838305  0.73963211    -0.11800
C910        C  0.17938937  0.79933613  0.76963423     0.05200
C911        C  0.20876983  0.81716579  0.77354784    -0.07100
C912        C  0.22207547  0.83479633  0.74795168    -0.07900
C913        C  0.20637247  0.83570711  0.71844101    -0.02400
C914        C  0.17780981  0.81654989  0.71425431     0.04400
N915        N  0.16062062  0.81570170  0.68489128     0.66900
H916        H  0.14242894  0.78481520  0.73614104     0.15800
H917        H  0.24430517  0.84882952  0.75165445     0.15500
N918        N  0.22577812  0.81766386  0.80301299     0.74600
O919        O  0.16440883  0.79095905  0.66764125    -0.38800
O920        O  0.13452166  0.83226743  0.68218384    -0.38800
O921        O  0.25130057  0.80025749  0.80594811    -0.39500
O922        O  0.22275998  0.84264018  0.82008098    -0.39600
C923        C  0.37581321  0.61264382  0.76872554    -0.11800
C924        C  0.35229669  0.62886752  0.78707758     0.05200
C925        C  0.34411303  0.66166681  0.77916608    -0.07100
C926        C  0.35834195  0.67665020  0.75258515    -0.07900
C927        C  0.38079991  0.65990225  0.73345553    -0.02400
C928        C  0.38986851  0.62751157  0.74207961     0.04400
N929        N  0.41218515  0.60846595  0.72375995     0.66900
H930        H  0.38258495  0.58748467  0.77423238     0.15800
H931        H  0.35160935  0.70178416  0.74693457     0.15500
N932        N  0.32131805  0.68038738  0.79725550     0.74600
O933        O  0.44132711  0.60543694  0.73352546    -0.38800
O934        O  0.40048102  0.58617447  0.70671515    -0.38800
O935        O  0.33256542  0.70204376  0.81530555    -0.39500
O936        O  0.29248827  0.68381933  0.78677378    -0.39600
C937        C  0.16534915  0.65122887  0.86100949    -0.11800
C938        C  0.17514549  0.68212831  0.87154139     0.05200
C939        C  0.20646350  0.68495247  0.88580219    -0.07100
C940        C  0.22814350  0.65829199  0.88597869    -0.07900
C941        C  0.21974606  0.62846128  0.87210088    -0.02400
C942        C  0.18715102  0.62452880  0.86108907     0.04400
N943        N  0.17563204  0.59416919  0.84902153     0.66900
H944        H  0.14117216  0.64812583  0.85076514     0.15800
H945        H  0.25252830  0.66174872  0.89565368     0.15500
N946        N  0.21727081  0.71457366  0.89999219     0.74600
O947        O  0.15811334  0.57632449  0.86689912    -0.38800
O948        O  0.17261979  0.59145620  0.81945568    -0.38800
O949        O  0.21728091  0.71589443  0.92982484    -0.39500
O950        O  0.23711801  0.73253196  0.88471021    -0.39600
C951        C  0.34568264  0.44625189  0.57104150    -0.11800
C952        C  0.35522976  0.42094652  0.59132822     0.05200
C953        C  0.38699130  0.40764209  0.58779981    -0.07100
C954        C  0.40668330  0.41712687  0.56173658    -0.07900
C955        C  0.39413439  0.43739455  0.53715975    -0.02400
C956        C  0.36438777  0.45476241  0.54444095     0.04400
N957        N  0.35132544  0.48034179  0.52483100     0.66900
H958        H  0.32233099  0.45852475  0.57462901     0.15800
H959        H  0.43167801  0.40838660  0.56102107     0.15500
N960        N  0.39938989  0.38444413  0.61044425     0.74600
O961        O  0.32737745  0.47361255  0.50716669    -0.38800
O962        O  0.35334030  0.50919615  0.53500571    -0.38800
O963        O  0.39348655  0.35439444  0.60662247    -0.39500
O964        O  0.40714106  0.39423312  0.63763147    -0.39600
C965        C  0.26789820  0.44600371  0.75804227    -0.11800
C966        C  0.26582997  0.45855617  0.72703978     0.05200
C967        C  0.26360772  0.49283165  0.72253508    -0.07100
C968        C  0.26627937  0.51350069  0.74855196    -0.07900
C969        C  0.27110647  0.50094607  0.77933605    -0.02400
C970        C  0.27052722  0.46660690  0.78403563     0.04400
N971        N  0.27321839  0.45173095  0.81465855     0.66900
H972        H  0.26915289  0.41974913  0.76226441     0.15800
H973        H  0.26549210  0.53976240  0.74430700     0.15500
N974        N  0.25806846  0.50740649  0.69212320     0.74600
O975        O  0.24732447  0.44098027  0.82758310    -0.38800
O976        O  0.30035173  0.43895960  0.82241554    -0.38800
O977        O  0.22955173  0.51785461  0.68590584    -0.39500
O978        O  0.28216159  0.52004374  0.67762724    -0.39600
C979        C  0.17872616  0.34533822  0.63936635    -0.11800
C980        C  0.20970549  0.33596986  0.62781657     0.05200
C981        C  0.21246957  0.30531425  0.61278966    -0.07100
C982        C  0.18605912  0.28343012  0.61347591    -0.07900
C983        C  0.15638319  0.29123798  0.62854514    -0.02400
C984        C  0.15210503  0.32352271  0.63971022     0.04400
N985        N  0.12179042  0.33444115  0.65300659     0.66900
H986        H  0.17551018  0.36913213  0.65008660     0.15800
H987        H  0.18954900  0.25932436  0.60346289     0.15500
N988        N  0.24179962  0.29539666  0.59700522     0.74600
O989        O  0.11901854  0.33492727  0.68274992    -0.38800
O990        O  0.10419256  0.35370279  0.63665614    -0.38800
O991        O  0.26006148  0.27444942  0.61046213    -0.39500
O992        O  0.24261336  0.29777301  0.56719955    -0.39600
C993        C  0.21332375  0.00324007  0.76208353    -0.11800
C994        C  0.24342598  0.01168611  0.77566296     0.05200
C995        C  0.27273725  0.00130178  0.76063530    -0.07100
C996        C  0.27114549  0.98237648  0.73322362    -0.07900
C997        C  0.24094589  0.97365363  0.71986032    -0.02400
C998        C  0.21171278  0.98484193  0.73451872     0.04400
N999        N  0.17991142  0.97841364  0.72191470     0.66900
H1000       H  0.19046237  0.01139990  0.77266591     0.15800
H1001       H  0.29391956  0.97428115  0.72244891     0.15500
N1002       N  0.30443490  0.01057586  0.77170961     0.74600
O1003       O  0.16296632  0.95600548  0.73475221    -0.38800
O1004       O  0.16519428  0.00144230  0.70755462    -0.38800
O1005       O  0.32179254  0.98915133  0.78558969    -0.39500
O1006       O  0.31867136  0.03433067  0.75805214    -0.39600
C1007       C  0.20648991  0.13342565  0.74535282    -0.11800
C1008       C  0.20178906  0.14440965  0.77632902     0.05200
C1009       C  0.18072155  0.17135488  0.78145208    -0.07100
C1010       C  0.16407410  0.18576134  0.75597903    -0.07900
C1011       C  0.16709832  0.17344771  0.72532245    -0.02400
C1012       C  0.18911745  0.14724526  0.71996419     0.04400
N1013       N  0.19452383  0.13420002  0.68920926     0.66900
H1014       H  0.22266993  0.11281660  0.74089901     0.15800
H1015       H  0.14745585  0.20597085  0.76061903     0.15500
N1016       N  0.17565394  0.18468230  0.81211454     0.74600
O1017       O  0.21999083  0.14304263  0.67429084    -0.38800
O1018       O  0.18189203  0.10684122  0.68285774    -0.38800
O1019       O  0.18942194  0.21150527  0.81841096    -0.39500
O1020       O  0.14970955  0.17704075  0.82686399    -0.39600
C1021       C  0.38274218  0.34072257  0.77317514    -0.11800
C1022       C  0.37487619  0.30813424  0.78035504     0.05200
C1023       C  0.35039338  0.29237228  0.76238038    -0.07100
C1024       C  0.33514967  0.30926096  0.73744972    -0.07900
C1025       C  0.34330521  0.34182085  0.73005318    -0.02400
C1026       C  0.36725083  0.35772457  0.74858454     0.04400
N1027       N  0.37603540  0.39124354  0.74361853     0.66900
H1028       H  0.40113811  0.35339749  0.78691116     0.15800
H1029       H  0.31672927  0.29658668  0.72375719     0.15500
N1030       N  0.34118940  0.25905453  0.76801700     0.74600
O1031       O  0.36327211  0.41236496  0.76144852    -0.38800
O1032       O  0.40355555  0.39745909  0.73107955    -0.38800
O1033       O  0.31363541  0.25344057  0.78075552    -0.39500
O1034       O  0.35368281  0.23734204  0.75068629    -0.39600
C1035       C  0.31987264  0.16061167  0.89095341    -0.11800
C1036       C  0.32395901  0.13398791  0.87070845     0.05200
C1037       C  0.35437104  0.13050362  0.85472811    -0.07100
C1038       C  0.37879453  0.15438114  0.85796809    -0.07900
C1039       C  0.37349591  0.18259170  0.87589977    -0.02400
C1040       C  0.34391362  0.18495201  0.89347362     0.04400
N1041       N  0.33703255  0.21205832  0.91342967     0.66900
H1042       H  0.29700412  0.16353997  0.90387202     0.15800
H1043       H  0.40106968  0.15203879  0.84401878     0.15500
N1044       N  0.36011353  0.10495994  0.83262426     0.74600
O1045       O  0.31793218  0.23415587  0.90318221    -0.38800
O1046       O  0.33926613  0.20765581  0.94297248    -0.38800
O1047       O  0.35700174  0.11158883  0.80351471    -0.39500
O1048       O  0.37892336  0.08172090  0.84074702    -0.39600
C1049       C  0.66568125  0.52077355  0.57829763    -0.11800
C1050       C  0.67295945  0.55429875  0.58004772     0.05200
C1051       C  0.65820389  0.57549200  0.55780937    -0.07100
C1052       C  0.63678646  0.56318583  0.53528458    -0.07900
C1053       C  0.62825349  0.52974126  0.53279605    -0.02400
C1054       C  0.64406649  0.50813464  0.55523235     0.04400
N1055       N  0.64038603  0.47338028  0.55512600     0.66900
H1056       H  0.67696244  0.50392115  0.59512245     0.15800
H1057       H  0.62619085  0.58072907  0.51927446     0.15500
N1058       N  0.66560952  0.60966938  0.55623601     0.74600
O1059       O  0.66305027  0.45668921  0.54271958    -0.38800
O1060       O  0.62375332  0.46029813  0.57716447    -0.38800
O1061       O  0.68513684  0.61955218  0.53490303    -0.39500
O1062       O  0.64467689  0.62956432  0.56691440    -0.39600
C1063       C  0.00807935  0.79169736  0.73583317    -0.11800
C1064       C  0.99855583  0.76187208  0.72250290     0.05200
C1065       C  0.01123527  0.73254973  0.73610143    -0.07100
C1066       C  0.03277598  0.73383552  0.76201091    -0.07900
C1067       C  0.04245060  0.76373717  0.77512172    -0.02400
C1068       C  0.02953565  0.79302726  0.76162059     0.04400
N1069       N  0.03781476  0.82466338  0.77317537     0.66900
H1070       H  0.99865151  0.81464454  0.72627648     0.15800
H1071       H  0.04237742  0.71099894  0.77164214     0.15500
N1072       N  0.00283147  0.70106681  0.72435054     0.74600
O1073       O  0.05938490  0.84099262  0.75838281    -0.38800
O1074       O  0.01642420  0.83996111  0.78889393    -0.38800
O1075       O  0.02379268  0.68622391  0.70773306    -0.39500
O1076       O  0.98178444  0.68435925  0.73944939    -0.39600
C1077       C  0.86726903  0.66382490  0.63788961    -0.11800
C1078       C  0.85924773  0.69566027  0.62761744     0.05200
C1079       C  0.82747361  0.70126368  0.61499654    -0.07100
C1080       C  0.80421758  0.67602595  0.61532213    -0.07900
C1081       C  0.81124408  0.64509328  0.62853124    -0.02400
C1082       C  0.84376750  0.63875220  0.63882174     0.04400
N1083       N  0.85328856  0.60797997  0.65237764     0.66900
H1084       H  0.89148995  0.65869195  0.64739911     0.15800
H1085       H  0.77972937  0.68142541  0.60660162     0.15500
N1086       N  0.81750977  0.73245009  0.60263986     0.74600
O1087       O  0.87040387  0.58895135  0.63572289    -0.38800
O1088       O  0.85550913  0.60572446  0.68211750    -0.38800
O1089       O  0.81536103  0.73586083  0.57298141    -0.39500
O1090       O  0.79994880  0.75047519  0.61990939    -0.39600
C1091       C  0.82405851  0.84425927  0.74821658    -0.11800
C1092       C  0.83300081  0.83412609  0.77879754     0.05200
C1093       C  0.85648933  0.80894523  0.78262045    -0.07100
C1094       C  0.87057897  0.79480772  0.75597544    -0.07900
C1095       C  0.86284140  0.80602191  0.72537560    -0.02400
C1096       C  0.83909649  0.83104150  0.72158641     0.04400
N1097       N  0.83001781  0.84393425  0.69128818     0.66900
H1098       H  0.80628803  0.86385927  0.74485898     0.15800
H1099       H  0.88889944  0.77576250  0.75949324     0.15500
N1100       N  0.86669902  0.79725871  0.81301955     0.74600
O1101       O  0.80356465  0.83406996  0.67918742    -0.38800
O1102       O  0.84061249  0.87192141  0.68331942    -0.38800
O1103       O  0.85625494  0.76968520  0.82243725    -0.39500
O1104       O  0.89372432  0.80738121  0.82369057    -0.39600
C1105       C  0.54738171  0.71520081  0.75288391    -0.11800
C1106       C  0.53599285  0.72628571  0.78220876     0.05200
C1107       C  0.50519066  0.74219571  0.78348563    -0.07100
C1108       C  0.48571333  0.74434659  0.75622195    -0.07900
C1109       C  0.49650693  0.73181382  0.72714318    -0.02400
C1110       C  0.52849520  0.71839710  0.72543719     0.04400
N1111       N  0.54284964  0.70842057  0.69624829     0.66900
H1112       H  0.57155173  0.70411939  0.75109393     0.15800
H1113       H  0.46141355  0.75509377  0.75822500     0.15500
N1114       N  0.49234876  0.75516219  0.81215634     0.74600
O1115       O  0.56267914  0.72780122  0.68266031    -0.38800
O1116       O  0.54531991  0.67815175  0.69092648    -0.38800
O1117       O  0.49241784  0.78587687  0.81534507    -0.39500
O1118       O  0.47126574  0.73850469  0.82726499    -0.39600
C1119       C  0.70248864  0.63393869  0.75739566    -0.11800
C1120       C  0.69096276  0.64297158  0.72721341     0.05200
C1121       C  0.66508586  0.66592163  0.72479122    -0.07100
C1122       C  0.65230757  0.68002111  0.75209331    -0.07900
C1123       C  0.66313246  0.67038951  0.78224129    -0.02400
C1124       C  0.68829069  0.64663600  0.78485811     0.04400
N1125       N  0.69978086  0.63475786  0.81476760     0.66900
H1126       H  0.72181981  0.61573147  0.75982544     0.15800
H1127       H  0.63255864  0.69776211  0.74963749     0.15500
N1128       N  0.65075711  0.67498642  0.69517580     0.74600
O1129       O  0.68876100  0.60771819  0.82499585    -0.38800
O1130       O  0.72765998  0.64400770  0.82409903    -0.38800
O1131       O  0.62349424  0.66240010  0.68805387    -0.39500
O1132       O  0.65816983  0.70249241  0.68318311    -0.39600
C1133       C  0.65744245  0.82044296  0.86640476    -0.11800
C1134       C  0.66562443  0.78917406  0.87829456     0.05200
C1135       C  0.69733177  0.78460186  0.89137809    -0.07100
C1136       C  0.72047378  0.80987185  0.88975193    -0.07900
C1137       C  0.71345744  0.84006566  0.87500099    -0.02400
C1138       C  0.68085539  0.84575955  0.86451858     0.04400
N1139       N  0.67119322  0.87602154  0.85000896     0.66900
H1140       H  0.63322643  0.82480567  0.85655268     0.15800
H1141       H  0.74491745  0.80503464  0.89888276     0.15500
N1142       N  0.70727682  0.75433815  0.90576058     0.74600
O1143       O  0.66988543  0.87757642  0.82018994    -0.38800
O1144       O  0.65335131  0.89522144  0.86577043    -0.38800
O1145       O  0.72604344  0.73572019  0.89032827    -0.39500
O1146       O  0.70777395  0.75253208  0.93559660    -0.39600
C1147       C  0.76206035  0.47323030  0.75638377    -0.11800
C1148       C  0.73719997  0.47633979  0.77920382     0.05200
C1149       C  0.71345838  0.50137108  0.77530090    -0.07100
C1150       C  0.71407745  0.52121076  0.74823643    -0.07900
C1151       C  0.73783601  0.51702550  0.72453512    -0.02400
C1152       C  0.76266301  0.49321156  0.72922493     0.04400
N1153       N  0.78782191  0.48757914  0.70636979     0.66900
H1154       H  0.78052923  0.45416936  0.75884354     0.15800
H1155       H  0.69550011  0.54018821  0.74583874     0.15500
N1156       N  0.68823749  0.50721228  0.79812069     0.74600
O1157       O  0.81628706  0.49819786  0.71201093    -0.38800
O1158       O  0.78488940  0.46326029  0.68845030    -0.38800
O1159       O  0.69136272  0.53143030  0.81613773    -0.39500
O1160       O  0.65967934  0.49684699  0.79245666    -0.39600
C1161       C  0.99655672  0.24913308  0.77085534    -0.11800
C1162       C  0.99355661  0.22049921  0.78941264     0.05200
C1163       C  0.01230711  0.19275867  0.78106357    -0.07100
C1164       C  0.03189948  0.19357860  0.75399477    -0.07900
C1165       C  0.03374466  0.22147845  0.73436995    -0.02400
C1166       C  0.01636479  0.24999046  0.74356991     0.04400
N1167       N  0.01742205  0.27977378  0.72549198     0.66900
H1168       H  0.98233857  0.27072910  0.77674886     0.15800
H1169       H  0.04578953  0.17169917  0.74835199     0.15500
N1170       N  0.01219959  0.16328376  0.79961809     0.74600
O1171       O  0.99345233  0.28642134  0.70761673    -0.38800
O1172       O  0.03440184  0.30312634  0.73587985    -0.38800
O1173       O  0.99621192  0.13911236  0.78953561    -0.39500
O1174       O  0.03618812  0.15794109  0.81785590    -0.39600
C1175       C  0.86213419  0.32384309  0.86307044    -0.11800
C1176       C  0.85367433  0.29306960  0.87583241     0.05200
C1177       C  0.82204333  0.28907866  0.88925905    -0.07100
C1178       C  0.79897768  0.31435911  0.88690048    -0.07900
C1179       C  0.80619104  0.34386028  0.87107501    -0.02400
C1180       C  0.83882672  0.34914842  0.86039927     0.04400
N1181       N  0.84861837  0.37893669  0.84503188     0.66900
H1182       H  0.88637462  0.32765596  0.85295851     0.15800
H1183       H  0.77448167  0.31003349  0.89622686     0.15500
N1184       N  0.81220076  0.25943408  0.90483410     0.74600
O1185       O  0.86467132  0.39941487  0.86087550    -0.38800
O1186       O  0.85200588  0.37909325  0.81532602    -0.38800
O1187       O  0.80999535  0.25941658  0.93463794    -0.39500
O1188       O  0.79485965  0.23945598  0.88965568    -0.39600
C1189       C  0.76940690  0.97656399  0.76302836    -0.11800
C1190       C  0.79927578  0.96472421  0.77513974     0.05200
C1191       C  0.82862997  0.97300511  0.75877788    -0.07100
C1192       C  0.82742365  0.99272600  0.73150042    -0.07900
C1193       C  0.79765572  0.00491022  0.71960988    -0.02400
C1194       C  0.76825365  0.99646787  0.73573836     0.04400
N1195       N  0.73694895  0.00844563  0.72573534     0.66900
H1196       H  0.74650788  0.97037594  0.77482984     0.15800
H1197       H  0.85037742  0.99897006  0.71980761     0.15500
N1198       N  0.86018993  0.96217818  0.76925610     0.74600
O1199       O  0.71822086  0.98917297  0.71123205    -0.38800
O1200       O  0.72427411  0.03189523  0.74069425    -0.38800
O1201       O  0.87398315  0.93926637  0.75442118    -0.39500
O1202       O  0.87798535  0.98224007  0.78385054    -0.39600
C1203       C  0.85854558  0.16530057  0.71794079    -0.11800
C1204       C  0.83434934  0.14181798  0.72449774     0.05200
C1205       C  0.82377439  0.13718037  0.75623849    -0.07100
C1206       C  0.83836711  0.15496989  0.78037670    -0.07900
C1207       C  0.86321673  0.17769510  0.77391358    -0.02400
C1208       C  0.87293997  0.18331224  0.74214842     0.04400
N1209       N  0.89860288  0.20562313  0.73382525     0.66900
H1210       H  0.86699862  0.16928385  0.69383601     0.15800
H1211       H  0.83046197  0.15046670  0.80458944     0.15500
N1212       N  0.79913078  0.11388158  0.76500234     0.74600
O1213       O  0.92711587  0.19425217  0.72952537    -0.38800
O1214       O  0.89085593  0.23222471  0.72017084    -0.38800
O1215       O  0.80810974  0.08731347  0.77800665    -0.39500
O1216       O  0.77045164  0.12429908  0.77036061    -0.39600
C1217       C  0.59854895  0.32676359  0.55435535    -0.11800
C1218       C  0.57520565  0.31691739  0.57674482     0.05200
C1219       C  0.54343280  0.33044654  0.57476025    -0.07100
C1220       C  0.53617799  0.35381572  0.55127614    -0.07900
C1221       C  0.55809077  0.36130108  0.52626138    -0.02400
C1222       C  0.59050473  0.34781836  0.52911233     0.04400
N1223       N  0.61604042  0.35452805  0.50669417     0.66900
H1224       H  0.62341036  0.31721797  0.55590154     0.15800
H1225       H  0.51339541  0.36670576  0.55425592     0.15500
N1226       N  0.51814375  0.32194617  0.59679367     0.74600
O1227       O  0.63827330  0.37436844  0.51448841    -0.38800
O1228       O  0.62322976  0.33250353  0.48712766    -0.38800
O1229       O  0.51022810  0.34270480  0.61734597    -0.39500
O1230       O  0.49688504  0.30136315  0.58834492    -0.39600
C1231       C  0.55691315  0.24520709  0.75271748    -0.11800
C1232       C  0.54513451  0.23453895  0.72363169     0.05200
C1233       C  0.51263132  0.22323885  0.72177094    -0.07100
C1234       C  0.49183301  0.22480498  0.74857732    -0.07900
C1235       C  0.50312119  0.23761122  0.77763380    -0.02400
C1236       C  0.53662999  0.24691972  0.77941539     0.04400
N1237       N  0.55101321  0.25902484  0.80766035     0.66900
H1238       H  0.58204507  0.25375792  0.75457001     0.15800
H1239       H  0.46661741  0.21666985  0.74639488     0.15500
N1240       N  0.50108797  0.20937028  0.69300655     0.74600
O1241       O  0.56931379  0.23981062  0.82331640    -0.38800
O1242       O  0.55640882  0.28942238  0.80915103    -0.38800
O1243       O  0.51263899  0.18208057  0.68459040    -0.39500
O1244       O  0.48851411  0.22808092  0.67230965    -0.39600
C1245       C  0.64033147  0.33861294  0.72862944    -0.11800
C1246       C  0.65826422  0.31269377  0.71566670     0.05200
C1247       C  0.68912347  0.30446464  0.72901341    -0.07100
C1248       C  0.70087253  0.32199363  0.75477242    -0.07900
C1249       C  0.68249289  0.34736578  0.76821596    -0.02400
C1250       C  0.65180193  0.35570164  0.75470880     0.04400
N1251       N  0.63158802  0.38131289  0.76673043     0.66900
H1252       H  0.61658583  0.34541507  0.71894768     0.15800
H1253       H  0.72452192  0.31515526  0.76465320     0.15500
N1254       N  0.70875632  0.27799893  0.71776404     0.74600
O1255       O  0.63160895  0.40855206  0.75221292    -0.38800
O1256       O  0.60643041  0.37336218  0.78258206    -0.38800
O1257       O  0.73452883  0.28480354  0.70234856    -0.39500
O1258       O  0.70746162  0.25099048  0.73263534    -0.39600
C1259       C  0.72657280  0.16381705  0.60838812    -0.11800
C1260       C  0.72178045  0.13455719  0.62550696     0.05200
C1261       C  0.68989988  0.12770214  0.63737265    -0.07100
C1262       C  0.66503496  0.15138196  0.63493565    -0.07900
C1263       C  0.67070992  0.18190253  0.62039422    -0.02400
C1264       C  0.70140969  0.18715045  0.60523545     0.04400
N1265       N  0.70763761  0.21545007  0.58594324     0.66900
H1266       H  0.75034902  0.16905843  0.59783839     0.15800
H1267       H  0.64155278  0.14634061  0.64616007     0.15500
N1268       N  0.68217747  0.09755123  0.65314187     0.74600
O1269       O  0.72502264  0.23807712  0.59712228    -0.38800
O1270       O  0.70665095  0.21224986  0.55628292    -0.38800
O1271       O  0.67949307  0.09745354  0.68290776    -0.39500
O1272       O  0.66682350  0.07616638  0.63778069    -0.39600
C1273       C  0.48589670  0.33600071  0.97160871    -0.11800
C1274       C  0.46899774  0.36629284  0.97444606     0.05200
C1275       C  0.44983465  0.37600391  0.94743403    -0.07100
C1276       C  0.44429353  0.35369693  0.92269386    -0.07900
C1277       C  0.45831255  0.32218064  0.92237217    -0.02400
C1278       C  0.48020746  0.31394129  0.94706965     0.04400
N1279       N  0.49696570  0.28320936  0.94838511     0.66900
H1280       H  0.50248900  0.32822594  0.99023916     0.15800
H1281       H  0.42927025  0.36172021  0.90289178     0.15500
N1282       N  0.43925741  0.40895908  0.94165672     0.74600
O1283       O  0.52665923  0.28242260  0.93972057    -0.38800
O1284       O  0.48700903  0.26183993  0.96803321    -0.38800
O1285       O  0.45730838  0.42688081  0.92432386    -0.39500
O1286       O  0.40875250  0.41457652  0.94148268    -0.39600
C1287       C  0.44597248  0.33374449  0.02947915    -0.11800
C1288       C  0.46357462  0.36310446  0.03539779     0.05200
C1289       C  0.46707748  0.37079444  0.06814471    -0.07100
C1290       C  0.45790165  0.34812246  0.09192539    -0.07900
C1291       C  0.44453357  0.31761492  0.08478219    -0.02400
C1292       C  0.43830603  0.31067858  0.05298075     0.04400
N1293       N  0.42234710  0.28123150  0.04367800     0.66900
H1294       H  0.43676597  0.32796164  0.00631410     0.15800
H1295       H  0.46075562  0.35491394  0.11650164     0.15500
N1296       N  0.47499121  0.40270646  0.07867360     0.74600
O1297       O  0.39221090  0.28267017  0.03680433    -0.38800
O1298       O  0.43966359  0.25900625  0.03145858    -0.38800
O1299       O  0.45110263  0.42101863  0.08542769    -0.39500
O1300       O  0.50130049  0.40646416  0.09389600    -0.39600
C1301       C  0.56908963  0.40230898  0.02481312    -0.11800
C1302       C  0.57665687  0.42398644  0.99935381     0.05200
C1303       C  0.55568190  0.42045959  0.97246845    -0.07100
C1304       C  0.52389715  0.40878609  0.97679083    -0.07900
C1305       C  0.51333132  0.39272258  0.00477343    -0.02400
C1306       C  0.53874788  0.38541417  0.02713552     0.04400
N1307       N  0.53761425  0.35773556  0.04830349     0.66900
H1308       H  0.58751375  0.39636186  0.04226424     0.15800
H1309       H  0.50748016  0.41151098  0.95692581     0.15500
N1310       N  0.56700943  0.42222661  0.94024695     0.74600
O1311       O  0.54437335  0.33009054  0.03689969    -0.38800
O1312       O  0.54413810  0.36207067  0.07713381    -0.38800
O1313       O  0.57922362  0.39639285  0.92893185    -0.39500
O1314       O  0.55254050  0.44139045  0.92115538    -0.39600
C1315       C  0.65970809  0.39857573  0.93964946    -0.11800
C1316       C  0.67101282  0.42336850  0.91942848     0.05200
C1317       C  0.66116710  0.45591340  0.92500987    -0.07100
C1318       C  0.63989570  0.46300914  0.94995843    -0.07900
C1319       C  0.62826330  0.43855260  0.97085857    -0.02400
C1320       C  0.63947244  0.40549119  0.96554756     0.04400
N1321       N  0.63203067  0.37852376  0.98644864     0.66900
H1322       H  0.66744071  0.37344560  0.93588354     0.15800
H1323       H  0.63352706  0.48846775  0.95305196     0.15500
N1324       N  0.67165198  0.48249634  0.90526405     0.74600
O1325       O  0.61028668  0.35841839  0.97805152    -0.38800
O1326       O  0.65456412  0.36809792  0.00446213    -0.38800
O1327       O  0.65122085  0.49458604  0.88593932    -0.39500
O1328       O  0.69448114  0.50051246  0.91518685    -0.39600
C1329       C  0.63712141  0.43906635  0.08858433    -0.11800
C1330       C  0.67016131  0.43074057  0.08457095     0.05200
C1331       C  0.68318801  0.43112589  0.05382582    -0.07100
C1332       C  0.66292519  0.43774970  0.02799773    -0.07900
C1333       C  0.62863792  0.44352348  0.03089418    -0.02400
C1334       C  0.61672696  0.44664892  0.06270865     0.04400
N1335       N  0.58546883  0.46039712  0.07016753     0.66900
H1336       H  0.62709699  0.44080641  0.11232489     0.15800
H1337       H  0.67538223  0.43873550  0.00543019     0.15500
N1338       N  0.71697138  0.42429387  0.04770635     0.74600
O1339       O  0.56339999  0.44136641  0.08051413    -0.38800
O1340       O  0.58583593  0.48915484  0.08068068    -0.38800
O1341       O  0.72439369  0.39657222  0.03683143    -0.39500
O1342       O  0.73577302  0.44818356  0.04183514    -0.39600
C1343       C  0.42159319  0.42221265  0.00800309    -0.11800
C1344       C  0.45643025  0.41947544  0.00910858     0.05200
C1345       C  0.47316047  0.44983764  0.01184382    -0.07100
C1346       C  0.45761167  0.47869495  0.00360223    -0.07900
C1347       C  0.42403160  0.48321829  0.00942758    -0.02400
C1348       C  0.40538150  0.45353078  0.00864077     0.04400
N1349       N  0.37074947  0.45471174  0.00383021     0.66900
H1350       H  0.40697783  0.40017033  0.00604445     0.15800
H1351       H  0.47377695  0.49857122  0.99743463     0.15500
N1352       N  0.50180807  0.45412291  0.03076123     0.74600
O1353       O  0.35953976  0.45599344  0.97601862    -0.38800
O1354       O  0.35158865  0.45832638  0.02697932    -0.38800
O1355       O  0.52645092  0.46651564  0.01742269    -0.39500
O1356       O  0.49737408  0.46152650  0.05931332    -0.39600
C1357       C  0.33701494  0.53745140  0.95277164    -0.11800
C1358       C  0.35367662  0.53684259  0.92403210     0.05200
C1359       C  0.38738031  0.52857616  0.92433709    -0.07100
C1360       C  0.40355134  0.52271631  0.95318380    -0.07900
C1361       C  0.38775049  0.52553673  0.98279392    -0.02400
C1362       C  0.35257322  0.53135989  0.98172730     0.04400
N1363       N  0.33049538  0.52961603  0.00819219     0.66900
H1364       H  0.31087271  0.54279202  0.95303449     0.15800
H1365       H  0.42950755  0.51676681  0.95234191     0.15500
N1366       N  0.40592473  0.52518689  0.89587649     0.74600
O1367       O  0.31860724  0.55635375  0.01764651    -0.38800
O1368       O  0.31186224  0.50495559  0.00995757    -0.38800
O1369       O  0.42591156  0.54761250  0.88837401    -0.39500
O1370       O  0.41134291  0.49659753  0.88605373    -0.39600
C1371       C  0.38014329  0.55957155  0.04669237    -0.11800
C1372       C  0.39070234  0.52685985  0.04376580     0.05200
C1373       C  0.38392694  0.50558500  0.07020312    -0.07100
C1374       C  0.36160759  0.51564980  0.09387192    -0.07900
C1375       C  0.34920975  0.54773547  0.09459470    -0.02400
C1376       C  0.36064046  0.57029806  0.07162865     0.04400
N1377       N  0.35200463  0.60420547  0.07205980     0.66900
H1378       H  0.38602350  0.57730344  0.02837192     0.15800
H1379       H  0.35580475  0.49889999  0.11322998     0.15500
N1380       N  0.40318321  0.47716592  0.07734531     0.74600
O1381       O  0.37292295  0.62399634  0.08266284    -0.38800
O1382       O  0.33136241  0.61472981  0.05210992    -0.38800
O1383       O  0.42772229  0.48117562  0.09508547    -0.39500
O1384       O  0.38895723  0.44970174  0.07841301    -0.39600
C1385       C  0.59495430  0.54407685  0.01503610    -0.11800
C1386       C  0.56403208  0.55116587  0.00152668     0.05200
C1387       C  0.55439762  0.52766310  0.97862899    -0.07100
C1388       C  0.56968600  0.49691119  0.97809549    -0.07900
C1389       C  0.59480817  0.48596082  0.99823416    -0.02400
C1390       C  0.61023249  0.51299057  0.01404929     0.04400
N1391       N  0.64332382  0.51168316  0.02537639     0.66900
H1392       H  0.60932538  0.56330370  0.02592755     0.15800
H1393       H  0.55965818  0.47868982  0.95789540     0.15500
N1394       N  0.53375422  0.53729840  0.95292071     0.74600
O1395       O  0.64791365  0.51383433  0.05482237    -0.38800
O1396       O  0.66561682  0.52231122  0.00709525    -0.38800
O1397       O  0.54667323  0.54763868  0.92748734    -0.39500
O1398       O  0.50297645  0.53448879  0.95484104    -0.39600
C1399       C  0.47910286  0.58808453  0.99601291    -0.11800
C1400       C  0.50603510  0.57441664  0.01245948     0.05200
C1401       C  0.49617094  0.55241478  0.03718595    -0.07100
C1402       C  0.46411678  0.53919879  0.03865116    -0.07900
C1403       C  0.44072317  0.54468121  0.01437815    -0.02400
C1404       C  0.44793545  0.57268158  0.99464806     0.04400
N1405       N  0.42415904  0.58857865  0.97496945     0.66900
H1406       H  0.48113580  0.61172506  0.98460854     0.15800
H1407       H  0.45881374  0.52143741  0.05719856     0.15500
N1408       N  0.51770479  0.54450610  0.06247125     0.74600
O1409       O  0.42906802  0.58802131  0.94547931    -0.38800
O1410       O  0.40980944  0.61341531  0.98598408    -0.38800
O1411       O  0.51582931  0.55989822  0.08813816    -0.39500
O1412       O  0.53819390  0.52170060  0.05944760    -0.39600
C1413       C  0.53239886  0.61289658  0.95146168    -0.11800
C1414       C  0.55363520  0.60682862  0.97733761     0.05200
C1415       C  0.58534404  0.62229030  0.97482905    -0.07100
C1416       C  0.59273344  0.64384123  0.94978936    -0.07900
C1417       C  0.56998661  0.65188043  0.92641709    -0.02400
C1418       C  0.53909330  0.63639860  0.92771162     0.04400
N1419       N  0.51449570  0.64246131  0.90436672     0.66900
H1420       H  0.51106743  0.59812509  0.94751381     0.15800
H1421       H  0.61700862  0.65479680  0.94894287     0.15500
N1422       N  0.61138134  0.61684047  0.99685924     0.74600
O1423       O  0.51120935  0.62191751  0.88255609    -0.38800
O1424       O  0.48996134  0.65965200  0.91201280    -0.38800
O1425       O  0.63574297  0.60027744  0.98755121    -0.39500
O1426       O  0.61648175  0.63864389  0.01717087    -0.39600
C1427       C  0.57181027  0.59369791  0.06152697    -0.11800
C1428       C  0.55218490  0.60568559  0.03653656     0.05200
C1429       C  0.54032046  0.63858462  0.04001568    -0.07100
C1430       C  0.55139449  0.65825473  0.06486325    -0.07900
C1431       C  0.57410128  0.64669420  0.08716051    -0.02400
C1432       C  0.58417915  0.61367518  0.08519460     0.04400
N1433       N  0.60651927  0.59904025  0.10720480     0.66900
H1434       H  0.57713133  0.56810512  0.06447732     0.15800
H1435       H  0.54221736  0.68315388  0.06639748     0.15500
N1436       N  0.51683220  0.65310287  0.01900832     0.74600
O1437       O  0.59483159  0.58064642  0.12866402    -0.38800
O1438       O  0.63570603  0.59415506  0.09816523    -0.38800
O1439       O  0.48767529  0.65611516  0.02887998    -0.39500
O1440       O  0.52707026  0.67339443  0.99845094    -0.39600
C1441       C  0.15666483  0.07674823  0.92931035    -0.11800
C1442       C  0.17932667  0.05280383  0.92030735     0.05200
C1443       C  0.17866764  0.02255092  0.93686350    -0.07100
C1444       C  0.15548298  0.01714479  0.96108438    -0.07900
C1445       C  0.13139810  0.04072224  0.96969979    -0.02400
C1446       C  0.13390150  0.07184970  0.95382742     0.04400
N1447       N  0.11741995  0.10065669  0.96405163     0.66900
H1448       H  0.15740378  0.10080114  0.91807094     0.15800
H1449       H  0.15704733  0.99398638  0.97380103     0.15500
N1450       N  0.20122479  0.99676205  0.93012605     0.74600
O1451       O  0.09329878  0.11066435  0.94785323    -0.38800
O1452       O  0.13501234  0.12192408  0.97725322    -0.38800
O1453       O  0.22470826  0.99193491  0.94908563    -0.39500
O1454       O  0.19102569  0.97293479  0.91416383    -0.39600
C1455       C  0.13830198  0.04080640  0.08885820    -0.11800
C1456       C  0.17091989  0.05122277  0.08495181     0.05200
C1457       C  0.18260719  0.05620488  0.05396784    -0.07100
C1458       C  0.16213996  0.05108317  0.02811413    -0.07900
C1459       C  0.12936895  0.03941253  0.03078491    -0.02400
C1460       C  0.11757039  0.03442061  0.06282462     0.04400
N1461       N  0.08526712  0.02225192  0.07026401     0.66900
H1462       H  0.12873539  0.03704016  0.11260624     0.15800
H1463       H  0.17334546  0.05707886  0.00566906     0.15500
N1464       N  0.21484712  0.06845182  0.04764852     0.74600
O1465       O  0.08283993  0.99281517  0.07944341    -0.38800
O1466       O  0.06422961  0.04207879  0.08085621    -0.38800
O1467       O  0.23604492  0.04884625  0.03693032    -0.39500
O1468       O  0.21788918  0.09861186  0.04128252    -0.39600
C1469       C  0.10942495  0.97132293  0.02003772    -0.11800
C1470       C  0.09953024  0.99425123  0.99642719     0.05200
C1471       C  0.08482307  0.97907122  0.96913154    -0.07100
C1472       C  0.07550612  0.94591204  0.96980461    -0.07900
C1473       C  0.08268530  0.92401299  0.99469553    -0.02400
C1474       C  0.10001890  0.93795055  0.02075971     0.04400
N1475       N  0.10642412  0.92062096  0.04978259     0.66900
H1476       H  0.12514774  0.97870725  0.03904496     0.15800
H1477       H  0.06270456  0.93656724  0.94934205     0.15500
N1478       N  0.08346545  0.99386722  0.93825337     0.74600
O1479       O  0.13601655  0.91584718  0.05744664    -0.38800
O1480       O  0.08557207  0.92288952  0.07182401    -0.38800
O1481       O  0.10771095  0.98964079  0.92006327    -0.39500
O1482       O  0.05558677  0.99703754  0.92552477    -0.39600
C1483       C  0.05870197  0.83731726  0.96205387    -0.11800
C1484       C  0.07437035  0.86822265  0.96372299     0.05200
C1485       C  0.09973897  0.87432508  0.94071785    -0.07100
C1486       C  0.10647360  0.85121340  0.91728817    -0.07900
C1487       C  0.09029588  0.82102473  0.91582958    -0.02400
C1488       C  0.06617114  0.81409655  0.93895214     0.04400
N1489       N  0.04932263  0.78348113  0.94042701     0.66900
H1490       H  0.04001990  0.83086643  0.97937023     0.15800
H1491       H  0.12579840  0.85692062  0.90037439     0.15500
N1492       N  0.12130650  0.90188564  0.94110717     0.74600
O1493       O  0.05884645  0.76241830  0.96055837    -0.38800
O1494       O  0.01979546  0.78268004  0.93141383    -0.38800
O1495       O  0.14942012  0.89790258  0.95312027    -0.39500
O1496       O  0.11858304  0.92257913  0.91881227    -0.39600
C1497       C  0.04681159  0.85419815  0.04166986    -0.11800
C1498       C  0.07274590  0.86627570  0.02224229     0.05200
C1499       C  0.10453063  0.85213380  0.02805500    -0.07100
C1500       C  0.10945726  0.83061583  0.05374877    -0.07900
C1501       C  0.08370374  0.82065111  0.07348170    -0.02400
C1502       C  0.05188166  0.83234640  0.06689787     0.04400
N1503       N  0.02412264  0.82347907  0.08590765     0.66900
H1504       H  0.02145649  0.86037239  0.03726090     0.15800
H1505       H  0.13390669  0.82074818  0.05771108     0.15500
N1506       N  0.13180425  0.85635419  0.00701000     0.74600
O1507       O  0.01454651  0.84342157  0.10658830    -0.38800
O1508       O  0.00342944  0.80387918  0.07456432    -0.38800
O1509       O  0.15641719  0.87203051  0.01669525    -0.39500
O1510       O  0.13687210  0.83410308  0.98709712    -0.39600
C1511       C  0.97034585  0.90731939  0.97330271    -0.11800
C1512       C  0.96083642  0.92632036  0.99932641     0.05200
C1513       C  0.98596219  0.93274883  0.02197691    -0.07100
C1514       C  0.01711827  0.91887205  0.01888623    -0.07900
C1515       C  0.02708440  0.89977906  0.99299709    -0.02400
C1516       C  0.00234137  0.89468627  0.96932968     0.04400
N1517       N  0.00833610  0.87942689  0.93964743     0.66900
H1518       H  0.95377216  0.90427630  0.95370386     0.15800
H1519       H  0.03467097  0.92428765  0.03721920     0.15500
N1520       N  0.98245118  0.95608844  0.04676831     0.74600
O1521       O  0.01382355  0.89786756  0.91600345    -0.38800
O1522       O  0.99457367  0.85222163  0.93482951    -0.38800
O1523       O  0.99634617  0.98348444  0.04276162    -0.39500
O1524       O  0.97924468  0.94559296  0.07481468    -0.39600
C1525       C  0.88551312  0.96047966  0.95532780    -0.11800
C1526       C  0.90228272  0.93487770  0.97186080     0.05200
C1527       C  0.89126509  0.90235868  0.96481551    -0.07100
C1528       C  0.86868158  0.89686508  0.94047601    -0.07900
C1529       C  0.85410087  0.92243298  0.92329793    -0.02400
C1530       C  0.86238571  0.95474097  0.93141310     0.04400
N1531       N  0.84846068  0.98247180  0.91544270     0.66900
H1532       H  0.88943362  0.98586904  0.96105955     0.15800
H1533       H  0.86174227  0.87176386  0.93562820     0.15500
N1534       N  0.90043608  0.87410316  0.98295037     0.74600
O1535       O  0.82560708  0.99784785  0.92904414    -0.38800
O1536       O  0.86607002  0.99768330  0.89549624    -0.38800
O1537       O  0.87934020  0.86281307  0.00216005    -0.39500
O1538       O  0.92022642  0.85410019  0.97056635    -0.39600
C1539       C  0.87516324  0.94968229  0.03291110    -0.11800
C1540       C  0.90537654  0.93282224  0.02981552     0.05200
C1541       C  0.91108777  0.90604041  0.05156954    -0.07100
C1542       C  0.88733249  0.89843528  0.07470471    -0.07900
C1543       C  0.85752936  0.91561875  0.07708398    -0.02400
C1544       C  0.85176091  0.94172880  0.05573820     0.04400
N1545       N  0.82229782  0.96072916  0.05616544     0.66900
H1546       H  0.86930696  0.96980649  0.01690012     0.15800
H1547       H  0.89214831  0.87794587  0.09064780     0.15500
N1548       N  0.93888255  0.88438640  0.05025671     0.74600
O1549       O  0.82327820  0.98855958  0.06881291    -0.38800
O1550       O  0.80143224  0.95598032  0.03466645    -0.38800
O1551       O  0.95908764  0.88511788  0.07280531    -0.39500
O1552       O  0.93545784  0.85735637  0.03653935    -0.39600
C1553       C  0.95753197  0.03109465  0.97533063    -0.11800
C1554       C  0.95456107  0.05052261  0.00270095     0.05200
C1555       C  0.93982477  0.03359539  0.02931774    -0.07100
C1556       C  0.92883927  0.00095068  0.02695939    -0.07900
C1557       C  0.93456697  0.98135733  0.00027654    -0.02400
C1558       C  0.95083639  0.99725912  0.97458852     0.04400
N1559       N  0.96533159  0.97888489  0.94950340     0.66900
H1560       H  0.96582436  0.04189226  0.95384266     0.15800
H1561       H  0.91938520  0.98997078  0.04850145     0.15500
N1562       N  0.93834965  0.04645923  0.06054043     0.74600
O1563       O  0.94819612  0.96754139  0.92738611    -0.38800
O1564       O  0.99576578  0.97299843  0.95022714    -0.38800
O1565       O  0.91034810  0.05294544  0.07180005    -0.39500
O1566       O  0.96057297  0.03764481  0.07964989    -0.39600
C1567       C  0.05621821  0.05253677  0.97288635    -0.11800
C1568       C  0.07652918  0.05427673  0.99929097     0.05200
C1569       C  0.06655554  0.07906344  0.02128232    -0.07100
C1570       C  0.03374156  0.09067659  0.02101245    -0.07900
C1571       C  0.00995997  0.08014939  0.99911290    -0.02400
C1572       C  0.02461308  0.06613219  0.97139416     0.04400
N1573       N  0.01344161  0.07373116  0.93992885     0.66900
H1574       H  0.06761651  0.04667686  0.95082990     0.15800
H1575       H  0.02910291  0.11211737  0.03490300     0.15500
N1576       N  0.08959834  0.09959325  0.03736885     0.74600
O1577       O  0.02111674  0.10141300  0.92848583    -0.38800
O1578       O  0.01015819  0.05048566  0.92073213    -0.38800
O1579       O  0.09647860  0.12659692  0.02413702    -0.39500
O1580       O  0.08982544  0.09910970  0.06720939    -0.39600
C1581       C  0.93619617  0.10149557  0.95401685    -0.11800
C1582       C  0.96179383  0.10974088  0.97463505     0.05200
C1583       C  0.97648621  0.14148706  0.96982279    -0.07100
C1584       C  0.96572349  0.16242273  0.94525049    -0.07900
C1585       C  0.94021959  0.15357579  0.92502173    -0.02400
C1586       C  0.92553340  0.12250117  0.92974552     0.04400
N1587       N  0.89937469  0.11120106  0.91040773     0.66900
H1588       H  0.92221725  0.07930693  0.95760667     0.15800
H1589       H  0.97751444  0.18607753  0.94218482     0.15500
N1590       N  0.00240975  0.15351156  0.98926307     0.74600
O1591       O  0.90627294  0.09097793  0.88904488    -0.38800
O1592       O  0.87070814  0.11103634  0.92190352    -0.38800
O1593       O  0.03110549  0.15423018  0.97779441    -0.39500
O1594       O  0.99514862  0.17405010  0.01025248    -0.39600
C1595       C  0.97583827  0.10819309  0.06097111    -0.11800
C1596       C  0.95782437  0.10549103  0.03270453     0.05200
C1597       C  0.92566167  0.12033426  0.03362687    -0.07100
C1598       C  0.91744263  0.14288921  0.05718607    -0.07900
C1599       C  0.93889702  0.14997223  0.08182084    -0.02400
C1600       C  0.96788105  0.13107066  0.08435922     0.04400
N1601       N  0.98812020  0.13207556  0.11182256     0.66900
H1602       H  0.99514704  0.09091932  0.06648598     0.15800
H1603       H  0.89339458  0.15440522  0.05653505     0.15500
N1604       N  0.89938047  0.11069344  0.01337895     0.74600
O1605       O  0.98370063  0.11050415  0.13309084    -0.38800
O1606       O  0.01607123  0.14523245  0.10936868    -0.38800
O1607       O  0.87979039  0.08909483  0.02375714    -0.39500
O1608       O  0.88825741  0.13172099  0.99400386    -0.39600
C1609       C  0.04952567  0.10185154  0.44579688    -0.11800
C1610       C  0.04761999  0.11654335  0.47570029     0.05200
C1611       C  0.04807653  0.15201470  0.47568403    -0.07100
C1612       C  0.05507720  0.16964247  0.44775186    -0.07900
C1613       C  0.06003467  0.15416405  0.41895788    -0.02400
C1614       C  0.05590960  0.11984306  0.41795745     0.04400
N1615       N  0.05637881  0.10257995  0.38883361     0.66900
H1616       H  0.04692769  0.07554855  0.44392785     0.15800
H1617       H  0.05643863  0.19616767  0.44873340     0.15500
N1618       N  0.03903302  0.17167909  0.50219245     0.74600
O1619       O  0.08203257  0.08697973  0.38149422    -0.38800
O1620       O  0.02926304  0.09348839  0.37751745    -0.38800
O1621       O  0.06105410  0.18917786  0.51435889    -0.39500
O1622       O  0.00998447  0.18245557  0.50318915    -0.39600
C1623       C  0.08010320  0.12564327  0.53903981    -0.11800
C1624       C  0.04822942  0.11251193  0.53635921     0.05200
C1625       C  0.02691551  0.11764030  0.56285173    -0.07100
C1626       C  0.03632553  0.13967205  0.58691100    -0.07900
C1627       C  0.06751319  0.15438360  0.58704431    -0.02400
C1628       C  0.08982380  0.14614570  0.56310148     0.04400
N1629       N  0.12201288  0.16006069  0.56123388     0.66900
H1630       H  0.09819844  0.12110570  0.52101749     0.15800
H1631       H  0.02003251  0.14337933  0.60691309     0.15500
N1632       N  0.99965778  0.09675447  0.56981531     0.74600
O1633       O  0.14605879  0.14271012  0.57013537    -0.38800
O1634       O  0.12710396  0.18281290  0.54127676    -0.38800
O1635       O  0.00525179  0.07197437  0.58718360    -0.39500
O1636       O  0.97150420  0.10956235  0.57155275    -0.39600
C1637       C  0.00625728  0.04454056  0.48809534    -0.11800
C1638       C  0.00690717  0.07682217  0.49938265     0.05200
C1639       C  0.97516141  0.09194161  0.49979597    -0.07100
C1640       C  0.94610302  0.07275523  0.49653523    -0.07900
C1641       C  0.94656972  0.03837385  0.49140602    -0.02400
C1642       C  0.97833204  0.02517083  0.48769656     0.04400
N1643       N  0.98409958  0.99176094  0.48297720     0.66900
H1644       H  0.02831468  0.03261072  0.48014652     0.15800
H1645       H  0.92267939  0.08533383  0.49710074     0.15500
N1646       N  0.97108552  0.12658868  0.49779988     0.74600
O1647       O  0.99457451  0.98294785  0.45636204    -0.38800
O1648       O  0.98461061  0.97241337  0.50646717    -0.38800
O1649       O  0.96984941  0.13924700  0.47040054    -0.39500
O1650       O  0.95533955  0.14057253  0.51956462    -0.39600
C1651       C  0.90024923  0.05090697  0.43945609    -0.11800
C1652       C  0.89071330  0.02691711  0.46186348     0.05200
C1653       C  0.85881228  0.01248642  0.45792967    -0.07100
C1654       C  0.83837816  0.02262706  0.43314301    -0.07900
C1655       C  0.84810765  0.04672417  0.41137857    -0.02400
C1656       C  0.87954373  0.06100976  0.41485663     0.04400
N1657       N  0.89155892  0.08577640  0.39370488     0.66900
H1658       H  0.92424824  0.06207373  0.44023106     0.15800
H1659       H  0.81435571  0.01139173  0.43112359     0.15500
N1660       N  0.84585884  0.98812599  0.47919246     0.74600
O1661       O  0.89024246  0.11519168  0.40251080    -0.38800
O1662       O  0.91327626  0.07783882  0.37383060    -0.38800
O1663       O  0.82370379  0.99665309  0.49840186    -0.39500
O1664       O  0.84630818  0.95868346  0.47040102    -0.39600
C1665       C  0.86758313  0.05080527  0.51869675    -0.11800
C1666       C  0.89480094  0.02930527  0.52160185     0.05200
C1667       C  0.90632861  0.02393862  0.55316710    -0.07100
C1668       C  0.88752985  0.03435625  0.57922628    -0.07900
C1669       C  0.85818886  0.05179330  0.57505356    -0.02400
C1670       C  0.84889909  0.06073396  0.54425042     0.04400
N1671       N  0.82200555  0.08225710  0.53793832     0.66900
H1672       H  0.86026041  0.06158410  0.49634020     0.15800
H1673       H  0.89613673  0.02892429  0.60299374     0.15500
N1674       N  0.93725129  0.00907594  0.55993310     0.74600
O1675       O  0.82833017  0.11224681  0.53351029    -0.38800
O1676       O  0.79695065  0.07047890  0.52475811    -0.38800
O1677       O  0.96142479  0.02764388  0.56461457    -0.39500
O1678       O  0.93669788  0.98199681  0.57445747    -0.39600
C1679       C  0.94466415  0.93289711  0.46200571    -0.11800
C1680       C  0.94887536  0.91574819  0.49127813     0.05200
C1681       C  0.92520040  0.92570893  0.51477850    -0.07100
C1682       C  0.91230834  0.95802614  0.51379467    -0.07900
C1683       C  0.91843184  0.97965383  0.48831374    -0.02400
C1684       C  0.92845967  0.96355925  0.45991767     0.04400
N1685       N  0.92386545  0.97805391  0.42912957     0.66900
H1686       H  0.95466053  0.92304652  0.44036544     0.15800
H1687       H  0.89527224  0.96513550  0.53210056     0.15500
N1688       N  0.90705310  0.90269509  0.53389912     0.74600
O1689       O  0.94367764  0.99926109  0.41846682    -0.38800
O1690       O  0.89845991  0.97127748  0.41343781    -0.38800
O1691       O  0.90292244  0.90886111  0.56284524    -0.39500
O1692       O  0.88483681  0.88652100  0.52040525    -0.39600
C1693       C  0.93452929  0.85675960  0.45828777    -0.11800
C1694       C  0.96798223  0.86440246  0.46340889     0.05200
C1695       C  0.99115189  0.84928584  0.44237484    -0.07100
C1696       C  0.98008115  0.82884785  0.41803683    -0.07900
C1697       C  0.94676417  0.82251780  0.41331532    -0.02400
C1698       C  0.92382653  0.83710857  0.43372239     0.04400
N1699       N  0.88934909  0.83149959  0.43107957     0.66900
H1700       H  0.91590237  0.86578303  0.47418550     0.15800
H1701       H  0.99809116  0.81754972  0.40263221     0.15500
N1702       N  0.02594752  0.85149412  0.44564079     0.74600
O1703       O  0.87629208  0.81074708  0.44959705    -0.38800
O1704       O  0.87169626  0.85432563  0.41991248    -0.38800
O1705       O  0.04093025  0.82554994  0.45352975    -0.39500
O1706       O  0.04088435  0.87152754  0.42773604    -0.39600
C1707       C  0.96334599  0.83028121  0.52147203    -0.11800
C1708       C  0.96943126  0.86437178  0.52418144     0.05200
C1709       C  0.97125679  0.87638960  0.55587631    -0.07100
C1710       C  0.96301920  0.85591594  0.58178072    -0.07900
C1711       C  0.95490472  0.82293746  0.57788914    -0.02400
C1712       C  0.95593136  0.81005303  0.54731437     0.04400
N1713       N  0.94819689  0.77663044  0.54127461     0.66900
H1714       H  0.96440875  0.81794281  0.49907962     0.15800
H1715       H  0.96376598  0.86588063  0.60544176     0.15500
N1716       N  0.98291461  0.90840854  0.56320849     0.74600
O1717       O  0.91958520  0.77005326  0.53184540    -0.38800
O1718       O  0.97140840  0.75760148  0.53393146    -0.38800
O1719       O  0.96333034  0.92713920  0.57721844    -0.39500
O1720       O  0.01291582  0.91143927  0.56976601    -0.39600
C1721       C  0.06814585  0.90620485  0.51467751    -0.11800
C1722       C  0.07284443  0.93696877  0.49983036     0.05200
C1723       C  0.05088149  0.94227460  0.47424551    -0.07100
C1724       C  0.02175762  0.92342253  0.47112023    -0.07900
C1725       C  0.01197370  0.89943889  0.49340971    -0.02400
C1726       C  0.03876183  0.88769391  0.51254594     0.04400
N1727       N  0.03997257  0.85494810  0.52542243     0.66900
H1728       H  0.08870807  0.89416058  0.52550270     0.15800
H1729       H  0.00749286  0.92666440  0.44992100     0.15500
N1730       N  0.06093008  0.96163734  0.44770499     0.74600
O1731       O  0.03654905  0.85083462  0.55486915    -0.38800
O1732       O  0.05746380  0.83430421  0.51114155    -0.38800
O1733       O  0.07265042  0.94758904  0.42373541    -0.39500
O1734       O  0.06044046  0.99247953  0.44886679    -0.39600
C1735       C  0.05998070  0.03993941  0.53182847    -0.11800
C1736       C  0.06825273  0.06346530  0.50860538     0.05200
C1737       C  0.09696752  0.05524744  0.49054885    -0.07100
C1738       C  0.11118206  0.02317981  0.49402420    -0.07900
C1739       C  0.09455349  0.99640495  0.50843071    -0.02400
C1740       C  0.07024633  0.00702627  0.53058081     0.04400
N1741       N  0.05622651  0.98627463  0.55418488     0.66900
H1742       H  0.04073305  0.04565411  0.54844287     0.15800
H1743       H  0.13617843  0.01991224  0.48717376     0.15500
N1744       N  0.11151975  0.07718464  0.46762973     0.74600
O1745       O  0.02966242  0.97221568  0.54767184    -0.38800
O1746       O  0.06013576  0.99525009  0.58238601    -0.38800
O1747       O  0.11983689  0.10594918  0.47449535    -0.39500
O1748       O  0.11506743  0.06795484  0.43949687    -0.39600
C1749       C  0.13847565  0.91441970  0.47631928    -0.11800
C1750       C  0.12834699  0.94787121  0.47469992     0.05200
C1751       C  0.14266415  0.96584551  0.44787893    -0.07100
C1752       C  0.16658591  0.95111339  0.42841886    -0.07900
C1753       C  0.17537715  0.91830025  0.43096160    -0.02400
C1754       C  0.16009856  0.89955647  0.45485999     0.04400
N1755       N  0.16638903  0.86531814  0.45865780     0.66900
H1756       H  0.13026239  0.89884091  0.49545511     0.15800
H1757       H  0.17691012  0.96552518  0.40902903     0.15500
N1758       N  0.13351974  0.99770004  0.43652536     0.74600
O1759       O  0.18569228  0.85615695  0.48037758    -0.38800
O1760       O  0.14471043  0.84555253  0.44944429    -0.38800
O1761       O  0.15604665  0.01900916  0.43638881    -0.39500
O1762       O  0.11347400  0.99909588  0.41381262    -0.39600
C1763       C  0.14687682  0.92219642  0.58292725    -0.11800
C1764       C  0.17890550  0.93360178  0.57880819     0.05200
C1765       C  0.18486773  0.95557305  0.55357567    -0.07100
C1766       C  0.15953630  0.96374366  0.53246830    -0.07900
C1767       C  0.12717767  0.95089560  0.53472629    -0.02400
C1768       C  0.12077694  0.93143486  0.56314446     0.04400
N1769       N  0.08916649  0.92426658  0.57678192     0.66900
H1770       H  0.14108878  0.90716414  0.60358154     0.15800
H1771       H  0.16604024  0.97986075  0.51292125     0.15500
N1772       N  0.21624456  0.97018022  0.54839049     0.74600
O1773       O  0.08114140  0.89445435  0.57895522    -0.38800
O1774       O  0.08101001  0.94142901  0.60010479    -0.38800
O1775       O  0.23385879  0.95939351  0.52618902    -0.39500
O1776       O  0.21996177  0.99957689  0.55655872    -0.39600
loop_ 
_geom_bond_atom_site_label_1 
_geom_bond_atom_site_label_2 
_geom_bond_distance 
_geom_bond_site_symmetry_2 
_ccdc_geom_bond_type 
C1         C1722   1.599       .  S
C1         C1739   1.610       .  S
C1         C1750   1.629       .  S
C1         C1767   1.597       .  S
C2         C1680   1.619       .  S
C2         C1694   1.580       .  S
C2         C1708   1.576       .  S
C2         C1725   1.598   1_655  S
C3         C1641   1.595       .  S
C3         C1652   1.564       .  S
C3         C1666   1.572       .  S
C3         C1683   1.585   1_545  S
C4         C1610   1.572       .  S
C4         C1624   1.571       .  S
C4         C1638   1.602       .  S
C4         C1736   1.612       .  S
C5         C1554   1.608       .  S
C5         C1571   1.606   1_654  S
C5         C1582   1.566   1_554  S
C5         C1596   1.587       .  S
C6         C1512   1.566   1_554  S
C6         C1526   1.594   1_554  S
C6         C1540   1.562       .  S
C6         C1557   1.588       .  S
C7         C1473   1.583       .  S
C7         C1484   1.571       .  S
C7         C1498   1.578   1_556  S
C7         C1515   1.595       .  S
C8         C1445   1.582       .  S
C8         C1459   1.594   1_556  S
C8         C1470   1.618   1_545  S
C8         C1568   1.586       .  S
C9         C1386   1.605       .  S
C9         C1400   1.606       .  S
C9         C1414   1.585   1_554  S
C9         C1428   1.574       .  S
C10        C1347   1.596       .  S
C10        C1361   1.575   1_554  S
C10        C1372   1.563       .  S
C10        C1403   1.612       .  S
C11        C1302   1.586   1_554  S
C11        C1319   1.561   1_554  S
C11        C1333   1.583       .  S
C11        C1389   1.614   1_554  S
C12        C1274   1.598   1_554  S
C12        C1288   1.586       .  S
C12        C1305   1.579       .  S
C12        C1344   1.584       .  S
In13         O15   2.238       .  S
In13         O16   2.282       .  S
In13         O24   2.290       .  S
In13         O18   2.236       .  S
In13         O20   2.225       .  S
In13         O21   2.262       .  S
In13         O22   2.256       .  S
In13         O25   2.260       .  S
C14          O20   1.262       .  A
C14          O22   1.258       .  A
C14        C1246   1.478       .  S
O15          C23   1.257       .  A
O16          C23   1.264       .  A
C17          O24   1.262       .  A
C17          O18   1.259       .  A
C17        C1218   1.482       .  S
C19          O21   1.264       .  A
C19          O25   1.256       .  A
C19        C1263   1.489       .  S
C23        C1232   1.484       .  S
In26         O28   2.243       .  S
In26         O29   2.252       .  S
In26         O37   2.270       .  S
In26         O31   2.269       .  S
In26         O33   2.234       .  S
In26         O34   2.268       .  S
In26         O35   2.256       .  S
In26         O38   2.228       .  S
C27          O33   1.255       .  A
C27          O35   1.265       .  A
C27        C1204   1.479       .  S
O28          C36   1.265       .  A
O29          C36   1.262       .  A
C30          O37   1.260       .  A
C30          O31   1.258       .  A
C30        C1669   1.478       .  S
C32          O34   1.261       .  A
C32          O38   1.260       .  A
C32        C1193   1.485       .  S
C36        C1260   1.487       .  S
In39         O41   2.253       .  S
In39         O42   2.268       .  S
In39         O50   2.272       .  S
In39         O44   2.245       .  S
In39         O46   2.222       .  S
In39         O47   2.257       .  S
In39         O48   2.260       .  S
In39         O51   2.237       .  S
C40          O46   1.261       .  A
C40          O48   1.258       .  A
C40        C1207   1.473       .  S
O41          C49   1.257       .  A
O42          C49   1.263       .  A
C43          O50   1.266       .  A
C43          O44   1.257       .  A
C43        C1585   1.493       .  S
C45          O47   1.265       .  A
C45          O51   1.259       .  A
C45        C1162   1.482       .  S
C49        C1176   1.484       .  S
In52         O54   2.232       .  S
In52         O55   2.229       .  S
In52         O63   2.248       .  S
In52         O57   2.233       .  S
In52         O59   2.266       .  S
In52         O60   2.280       .  S
In52         O61   2.234       .  S
In52         O64   2.222       .  S
C53          O59   1.257       .  A
C53          O61   1.257       .  A
C53        C1249   1.478       .  S
O54          C62   1.257       .  A
O55          C62   1.262       .  A
C56          O63   1.261       .  A
C56          O57   1.262       .  A
C56        C1316   1.476       .  S
C58          O60   1.263       .  A
C58          O64   1.263       .  A
C58        C1179   1.486       .  S
C62        C1148   1.474       .  S
In65         O67   2.223       .  S
In65         O68   2.288       .  S
In65         O76   2.304       .  S
In65         O70   2.238       .  S
In65         O72   2.278       .  S
In65         O73   2.279       .  S
In65         O74   2.225       .  S
In65         O77   2.263       .  S
C66          O72   1.262       .  A
C66          O74   1.260       .  A
C66        C1123   1.474       .  S
O67          C75   1.261       .  A
O68          C75   1.267       .  A
C69          O76   1.259       .  A
C69          O70   1.258       .  A
C69        C1417   1.489       .  S
C71          O73   1.263       .  A
C71          O77   1.256       .  A
C71        C1134   1.493       .  S
C75        C1106   1.482       .  S
In78         O80   2.227       .  S
In78         O81   2.311       .  S
In78         O89   2.298       .  S
In78         O83   2.225       .  S
In78         O85   2.258       .  S
In78         O86   2.252       .  S
In78         O87   2.217       .  S
In78         O90   2.250       .  S
C79          O85   1.260       .  A
C79          O87   1.259       .  A
C79        C1092   1.467       .  S
O80          C88   1.258       .  A
O81          C88   1.264       .  A
C82          O89   1.264       .  A
C82          O83   1.259       .  A
C82        C1529   1.492       .  S
C84          O86   1.267       .  A
C84          O90   1.259       .  A
C84        C1190   1.488       .  S
C88        C1137   1.495       .  S
In91         O93   2.260       .  S
In91         O94   2.248       .  S
In91        O102   2.267       .  S
In91         O96   2.235       .  S
In91         O98   2.208       .  S
In91         O99   2.301       .  S
In91        O100   2.256       .  S
In91        O103   2.235       .  S
C92          O98   1.260       .  A
C92         O100   1.262       .  A
C92        C1095   1.471       .  S
O93         C101   1.259       .  A
O94         C101   1.265       .  A
C95         O102   1.263       .  A
C95          O96   1.258       .  A
C95        C1711   1.480       .  S
C97          O99   1.264       .  A
C97         O103   1.260       .  A
C97        C1064   1.496       .  S
C101       C1078   1.489       .  S
In104       O106   2.208       .  S
In104       O107   2.274       .  S
In104       O115   2.279       .  S
In104       O109   2.264       .  S
In104       O111   2.273       .  S
In104       O112   2.285       .  S
In104       O113   2.234       .  S
In104       O116   2.234       .  S
C105        O111   1.261       .  A
C105        O113   1.259       .  A
C105       C1120   1.477       .  S
O106        C114   1.262       .  A
O107        C114   1.264       .  A
C108        O115   1.262       .  A
C108        O109   1.258       .  A
C108       C1050   1.493       .  S
C110        O112   1.260       .  A
C110        O116   1.260       .  A
C110       C1081   1.489       .  S
C114       C1151   1.478       .  S
In117       O119   2.303       .  S
In117       O120   2.269       .  S
In117       O128   2.301       .  S
In117       O122   2.260       .  S
In117       O124   2.258       .  S
In117       O125   2.251       .  S
In117       O126   2.227       .  S
In117       O129   2.267       .  S
C118        O124   1.257       .  A
C118        O126   1.262       .  A
C118       C1022   1.474       .  S
O119        C127   1.264       .  A
O120        C127   1.257       .  A
C121        O128   1.265       .  A
C121        O122   1.261       .  A
C121       C1277   1.506       .  S
C123        O125   1.264       .  A
C123        O129   1.259       .  A
C123       C1039   1.488       .  S
C127       C1235   1.505       .  S
In130       O132   2.241       .  S
In130       O133   2.278       .  S
In130       O141   2.320       .  S
In130       O135   2.224       .  S
In130       O137   2.271       .  S
In130       O138   2.264       .  S
In130       O139   2.242       .  S
In130       O142   2.220       .  S
C131        O137   1.259       .  A
C131        O139   1.258       .  A
C131       C1008   1.475       .  S
O132        C140   1.259       .  A
O133        C140   1.258       .  A
C134        O141   1.264       .  A
C134        O135   1.257       .  A
C134       C1442   1.498       .  S
C136        O138   1.262       .  A
C136        O142   1.263       .  A
C136        C994   1.483       .  S
C140       C1036   1.485       .  S
In143       O145   2.271       .  S
In143       O146   2.216       .  S
In143       O154   2.241       .  S
In143       O148   2.238       .  S
In143       O150   2.242       .  S
In143       O151   2.256       .  S
In143       O152   2.237       .  S
In143       O155   2.278       .  S
C144        O150   1.258       .  A
C144        O152   1.264       .  A
C144       C1025   1.477       .  S
O145        C153   1.264       .  A
O146        C153   1.260       .  A
C147        O154   1.263       .  A
C147        O148   1.257       .  A
C147        C952   1.482       .  S
C149        O151   1.260       .  A
C149        O155   1.259       .  A
C149        C980   1.490       .  S
C153        C966   1.480       .  S
In156       O158   2.225       .  S
In156       O159   2.288       .  S
In156       O167   2.236       .  S
In156       O161   2.294       .  S
In156       O163   2.269       .  S
In156       O164   2.284       .  S
In156       O165   2.231       .  S
In156       O168   2.215       .  S
C157        O163   1.259       .  A
C157        O165   1.260       .  A
C157       C1011   1.476       .  S
O158        C166   1.257       .  A
O159        C166   1.260       .  A
C160        O167   1.255       .  A
C160        O161   1.263       .  A
C160       C1627   1.482       .  S
C162        O164   1.262       .  A
C162        O168   1.262       .  A
C162       C1165   1.487       .  S
C166        C983   1.486       .  S
In169       O171   2.223       .  S
In169       O172   2.282       .  S
In169       O180   2.242       .  S
In169       O174   2.282       .  S
In169       O176   2.214       .  S
In169       O177   2.272       .  S
In169       O178   2.261       .  S
In169       O181   2.236       .  S
C170        O176   1.261       .  A
C170        O178   1.259       .  A
C170        C924   1.476       .  S
O171        C179   1.257       .  A
O172        C179   1.262       .  A
C173        O180   1.263       .  A
C173        O174   1.257       .  A
C173       C1358   1.488       .  S
C175        O177   1.261       .  A
C175        O181   1.264       .  A
C175        C941   1.489       .  S
C179        C969   1.484       .  S
In182       O184   2.259       .  S
In182       O185   2.273       .  S
In182       O193   2.301       .  S
In182       O187   2.215       .  S
In182       O189   2.258       .  S
In182       O190   2.267       .  S
In182       O191   2.238       .  S
In182       O194   2.266       .  S
C183        O189   1.261       .  A
C183        O191   1.261       .  A
C183        C910   1.475       .  S
O184        C192   1.256       .  A
O185        C192   1.265       .  A
C186        O193   1.264       .  A
C186        O187   1.259       .  A
C186       C1487   1.494       .  S
C188        O190   1.267       .  A
C188        O194   1.260       .  A
C188       C1067   1.495       .  S
C192        C938   1.489       .  S
In195       O197   2.246       .  S
In195       O198   2.274       .  S
In195       O206   2.310       .  S
In195       O200   2.196       .  S
In195       O202   2.242       .  S
In195       O203   2.267       .  S
In195       O204   2.242       .  S
In195       O207   2.249       .  S
C196        O202   1.260       .  A
C196        O204   1.262       .  A
C196        C913   1.480       .  S
O197        C205   1.256       .  A
O198        C205   1.266       .  A
C199        O206   1.265       .  A
C199        O200   1.257       .  A
C199       C1764   1.492       .  S
C201        O203   1.266       .  A
C201        O207   1.257       .  A
C201        C997   1.488       .  S
C205        C896   1.488       .  S
In208       O210   2.265       .  S
In208       O211   2.228       .  S
In208       O219   2.273       .  S
In208       O213   2.243       .  S
In208       O215   2.239       .  S
In208       O216   2.296       .  S
In208       O217   2.254       .  S
In208       O220   2.237       .  S
C209        O215   1.263       .  A
C209        O217   1.258       .  A
C209        C927   1.477       .  S
O210        C218   1.263       .  A
O211        C218   1.260       .  A
C212        O219   1.266       .  A
C212        O213   1.260       .  A
C212        C882   1.494       .  S
C214        O216   1.261       .  A
C214        O220   1.260       .  A
C214        C899   1.491       .  S
C218       C1109   1.485       .  S
C221        C840   1.584       .  S
C221        C854   1.610       .  S
C221        C868   1.582       .  S
C221       C1053   1.596       .  S
C222        C812   1.587       .  S
C222        C826   1.600       .  S
C222        C843   1.583       .  S
C222        C885   1.555       .  S
C223        C784   1.585       .  S
C223        C798   1.592       .  S
C223        C857   1.608       .  S
C223       C1221   1.566       .  S
C224        C770   1.570       .  S
C224        C787   1.607       .  S
C224        C815   1.588       .  S
C224        C955   1.574       .  S
In225       O227   2.264       .  S
In225       O228   2.241       .  S
In225       O236   2.274       .  S
In225       O230   2.226       .  S
In225       O232   2.223       .  S
In225       O233   2.263       .  S
In225       O234   2.243       .  S
In225       O237   2.259       .  S
C226        O232   1.264       .  A
C226        O234   1.258       .  A
C226        C742   1.468       .  S
O227        C235   1.260       .  A
O228        C235   1.267       .  A
C229        O236   1.264       .  A
C229        O230   1.260       .  A
C229       C1543   1.487       .  S
C231        O233   1.265       .  A
C231        O237   1.258       .  A
C231        C756   1.488       .  S
C235        C728   1.488       .  S
In238       O240   2.229       .  S
In238       O241   2.280       .  S
In238       O249   2.269       .  S
In238       O243   2.264       .  S
In238       O245   2.242       .  S
In238       O246   2.282       .  S
In238       O247   2.233       .  S
In238       O250   2.219       .  S
C239        O245   1.263       .  A
C239        O247   1.257       .  A
C239        C717   1.469       .  S
O240        C248   1.261       .  A
O241        C248   1.262       .  A
C242        O249   1.265       .  A
C242        O243   1.258       .  A
C242       C1431   1.492       .  S
C244        O246   1.265       .  A
C244        O250   1.260       .  A
C244        C700   1.490       .  S
C248        C759   1.489       .  S
In251       O253   2.255       .  S
In251       O254   2.228       .  S
In251       O262   2.287       .  S
In251       O256   2.242       .  S
In251       O258   2.239       .  S
In251       O259   2.269       .  S
In251       O260   2.265       .  S
In251       O263   2.220       .  S
C252        O258   1.265       .  A
C252        O260   1.258       .  A
C252        C714   1.483       .  S
O253        C261   1.259       .  A
O254        C261   1.262       .  A
C255        O262   1.262       .  A
C255        O256   1.261       .  A
C255        C871   1.495       .  S
C257        O259   1.263       .  A
C257        O263   1.262       .  A
C257        C672   1.483       .  S
C261        C686   1.477       .  S
In264       O266   2.204       .  S
In264       O267   2.266       .  S
In264       O275   2.262       .  S
In264       O269   2.251       .  S
In264       O271   2.226       .  S
In264       O272   2.269       .  S
In264       O273   2.253       .  S
In264       O276   2.218       .  S
C265        O271   1.261       .  A
C265        O273   1.258       .  A
C265        C745   1.471       .  S
O266        C274   1.261       .  A
O267        C274   1.264       .  A
C268        O275   1.264       .  A
C268        O269   1.257       .  A
C268       C1697   1.483       .  S
C270        O272   1.259       .  A
C270        O276   1.258       .  A
C270        C689   1.479       .  S
C274        C658   1.479       .  S
In277       O279   2.222       .  S
In277       O280   2.289       .  S
In277       O288   2.270       .  S
In277       O282   2.283       .  S
In277       O284   2.217       .  S
In277       O285   2.258       .  S
In277       O286   2.262       .  S
In277       O289   2.237       .  S
C278        O284   1.263       .  A
C278        O286   1.260       .  A
C278        C630   1.478       .  S
O279        C287   1.258       .  A
O280        C287   1.258       .  A
C281        O288   1.258       .  A
C281        O282   1.263       .  A
C281       C1375   1.489       .  S
C283        O285   1.267       .  A
C283        O289   1.256       .  A
C283        C616   1.482       .  S
C287        C647   1.487       .  S
In290       O292   2.239       .  S
In290       O293   2.241       .  S
In290       O301   2.266       .  S
In290       O295   2.224       .  S
In290       O297   2.264       .  S
In290       O298   2.260       .  S
In290       O299   2.248       .  S
In290       O302   2.259       .  S
C291        O297   1.256       .  A
C291        O299   1.257       .  A
C291        C605   1.476       .  S
O292        C300   1.264       .  A
O293        C300   1.258       .  A
C294        O301   1.262       .  A
C294        O295   1.261       .  A
C294       C1501   1.479       .  S
C296        O298   1.266       .  A
C296        O302   1.262       .  A
C296        C644   1.490       .  S
C300        C661   1.475       .  S
In303       O305   2.249       .  S
In303       O306   2.274       .  S
In303       O314   2.261       .  S
In303       O308   2.281       .  S
In303       O310   2.226       .  S
In303       O311   2.259       .  S
In303       O312   2.264       .  S
In303       O315   2.255       .  S
C304        O310   1.262       .  A
C304        O312   1.258       .  A
C304        C602   1.477       .  S
O305        C313   1.258       .  A
O306        C313   1.266       .  A
C307        O314   1.265       .  A
C307        O308   1.260       .  A
C307       C1753   1.496       .  S
C309        O311   1.266       .  A
C309        O315   1.261       .  A
C309        C588   1.489       .  S
C313        C574   1.492       .  S
In316       O318   2.239       .  S
In316       O319   2.296       .  S
In316       O327   2.283       .  S
In316       O321   2.228       .  S
In316       O323   2.249       .  S
In316       O324   2.248       .  S
In316       O325   2.241       .  S
In316       O328   2.251       .  S
C317        O323   1.257       .  A
C317        O325   1.260       .  A
C317        C633   1.475       .  S
O318        C326   1.260       .  A
O319        C326   1.264       .  A
C320        O327   1.264       .  A
C320        O321   1.259       .  A
C320        C829   1.487       .  S
C322        O324   1.264       .  A
C322        O328   1.258       .  A
C322        C703   1.486       .  S
C326        C591   1.488       .  S
In329       O331   2.215       .  S
In329       O332   2.262       .  S
In329       O340   2.258       .  S
In329       O334   2.290       .  S
In329       O336   2.211       .  S
In329       O337   2.246       .  S
In329       O338   2.251       .  S
In329       O341   2.232       .  S
C330        O336   1.259       .  A
C330        O338   1.257       .  A
C330        C546   1.472       .  S
O331        C339   1.265       .  A
O332        C339   1.265       .  A
C333        O340   1.261       .  A
C333        O334   1.256       .  A
C333        C773   1.492       .  S
C335        O337   1.267       .  A
C335        O341   1.253       .  A
C335        C619   1.479       .  S
C339        C560   1.484       .  S
In342       O344   2.299       .  S
In342       O345   2.209       .  S
In342       O353   2.260       .  S
In342       O347   2.266       .  S
In342       O349   2.220       .  S
In342       O350   2.249       .  S
In342       O351   2.256       .  S
In342       O354   2.258       .  S
C343        O349   1.262       .  A
C343        O351   1.258       .  A
C343        C532   1.474       .  S
O344        C352   1.264       .  A
O345        C352   1.259       .  A
C346        O353   1.257       .  A
C346        O347   1.266       .  A
C346       C1613   1.489       .  S
C348        O350   1.264       .  A
C348        O354   1.259       .  A
C348        C563   1.486       .  S
C352        C518   1.490       .  S
In355       O357   2.232       .  S
In355       O358   2.271       .  S
In355       O366   2.277       .  S
In355       O360   2.244       .  S
In355       O362   2.231       .  S
In355       O363   2.236       .  S
In355       O364   2.249       .  S
In355       O367   2.279       .  S
C356        O362   1.263       .  A
C356        O364   1.259       .  A
C356        C549   1.475       .  S
O357        C365   1.263       .  A
O358        C365   1.262       .  A
C359        O366   1.261       .  A
C359        O360   1.257       .  A
C359       C1291   1.481       .  S
C361        O363   1.257       .  A
C361        O367   1.265       .  A
C361        C490   1.492       .  S
C365        C504   1.488       .  S
In368       O370   2.224       .  S
In368       O371   2.295       .  S
In368       O379   2.281       .  S
In368       O373   2.267       .  S
In368       O375   2.229       .  S
In368       O376   2.248       .  S
In368       O377   2.260       .  S
In368       O380   2.244       .  S
C369        O375   1.263       .  A
C369        O377   1.257       .  A
C369        C535   1.474       .  S
O370        C378   1.262       .  A
O371        C378   1.263       .  A
C372        O379   1.263       .  A
C372        O373   1.260       .  A
C372       C1456   1.494       .  S
C374        O376   1.266       .  A
C374        O380   1.259       .  A
C374        C507   1.484       .  S
C378        C577   1.493   1_545  S
In381       O383   2.250       .  S
In381       O384   2.269       .  S
In381       O392   2.256       .  S
In381       O386   2.259       .  S
In381       O388   2.208       .  S
In381       O389   2.260       .  S
In381       O390   2.234       .  S
In381       O393   2.236       .  S
C382        O388   1.264       .  A
C382        O390   1.260       .  A
C382        C462   1.466       .  S
O383        C391   1.258       .  A
O384        C391   1.263       .  A
C385        O392   1.265       .  A
C385        O386   1.255       .  A
C385        C801   1.488       .  S
C387        O389   1.265       .  A
C387        O393   1.257       .  A
C387        C493   1.477       .  S
C391        C479   1.486       .  S
In394       O396   2.229       .  S
In394       O397   2.274       .  S
In394       O405   2.254       .  S
In394       O399   2.247       .  S
In394       O401   2.218       .  S
In394       O402   2.295       .  S
In394       O403   2.241       .  S
In394       O406   2.213       .  S
C395        O401   1.259       .  A
C395        O403   1.258       .  A
C395        C448   1.465       .  S
O396        C404   1.260       .  A
O397        C404   1.263       .  A
C398        O405   1.267       .  A
C398        O399   1.256       .  A
C398       C1655   1.485       .  S
C400        O402   1.262       .  A
C400        O406   1.258       .  A
C400        C476   1.487       .  S
C404        C731   1.489       .  S
In407       O409   2.226       .  S
In407       O410   2.247       .  S
In407       O418   2.289       .  S
In407       O412   2.256       .  S
In407       O414   2.227       .  S
In407       O415   2.302       .  S
In407       O416   2.246       .  S
In407       O419   2.231       .  S
C408        O414   1.261       .  A
C408        O416   1.256       .  A
C408        C451   1.466       .  S
O409        C417   1.260       .  A
O410        C417   1.268       .  A
C411        O418   1.261       .  A
C411        O412   1.259       .  A
C411       C1599   1.491       .  S
C413        O415   1.263       .  A
C413        O419   1.259       .  A
C413        C434   1.494       .  S
C417        C521   1.481       .  S
In420       O422   2.253       .  S
In420       O423   2.258       .  S
In420       O431   2.267       .  S
In420       O425   2.229       .  S
In420       O427   2.219       .  S
In420       O428   2.250       .  S
In420       O429   2.248       .  S
In420       O432   2.266       .  S
C421        O427   1.261       .  A
C421        O429   1.258       .  A
C421        C465   1.468       .  S
O422        C430   1.260       .  A
O423        C430   1.266       .  A
C424        O431   1.264       .  A
C424        O425   1.259       .  A
C424       C1330   1.480       .  S
C426        O428   1.262       .  A
C426        O432   1.257       .  A
C426        C675   1.484       .  S
C430        C437   1.489       .  S
C433        C434   1.402       .  A
C433        C438   1.398       .  A
C433        H440   1.084       .  S
C434        C435   1.418       .  A
C435        C436   1.406       .  A
C435        N442   1.426       .  S
C436        C437   1.403       .  A
C436        H441   1.084       .  S
C437        C438   1.414       .  A
C438        N439   1.427       .  S
N439        O443   1.262       .  A
N439        O444   1.262       .  A
N442        O446   1.262       .  A
N442        O445   1.262       .  A
C447        C448   1.398       .  A
C447        C452   1.394       .  A
C447        H454   1.085       .  S
C448        C449   1.412       .  A
C449        C450   1.392       .  A
C449        N456   1.427       .  S
C450        C451   1.397       .  A
C450        H455   1.085       .  S
C451        C452   1.413       .  A
C452        N453   1.427       .  S
N453        O457   1.262       .  A
N453        O458   1.262       .  A
N456        O460   1.262       .  A
N456        O459   1.262       .  A
C461        C462   1.398       .  A
C461        C466   1.392       .  A
C461        H468   1.085       .  S
C462        C463   1.413       .  A
C463        C464   1.393       .  A
C463        N470   1.427       .  S
C464        C465   1.399       .  A
C464        H469   1.085       .  S
C465        C466   1.411       .  A
C466        N467   1.426       .  S
N467        O471   1.262       .  A
N467        O472   1.262       .  A
N470        O474   1.261       .  A
N470        O473   1.262       .  A
C475        C476   1.401       .  A
C475        C480   1.394       .  A
C475        H482   1.084       .  S
C476        C477   1.416       .  A
C477        C478   1.405       .  A
C477        N484   1.426       .  S
C478        C479   1.404       .  A
C478        H483   1.084       .  S
C479        C480   1.413       .  A
C480        N481   1.426       .  S
N481        O485   1.262       .  A
N481        O486   1.262       .  A
N484        O488   1.262       .  A
N484        O487   1.262       .  A
C489        C490   1.415       .  A
C489        C494   1.407       .  A
C489        H496   1.084       .  S
C490        C491   1.416       .  A
C491        C492   1.398       .  A
C491        N498   1.426       .  S
C492        C493   1.397       .  A
C492        H497   1.084       .  S
C493        C494   1.401       .  A
C494        N495   1.428       .  S
N495        O499   1.262       .  A
N495        O500   1.262       .  A
N498        O502   1.262       .  A
N498        O501   1.262       .  A
C503        C504   1.401       .  A
C503        C508   1.397       .  A
C503        H510   1.084       .  S
C504        C505   1.416       .  A
C505        C506   1.401       .  A
C505        N512   1.426       .  S
C506        C507   1.401       .  A
C506        H511   1.084       .  S
C507        C508   1.415       .  A
C508        N509   1.427       .  S
N509        O513   1.262       .  A
N509        O514   1.262       .  A
N512        O516   1.262       .  A
N512        O515   1.262       .  A
C517        C518   1.402       .  A
C517        C522   1.392   1_455  A
C517        H524   1.084       .  S
C518        C519   1.418       .  A
C519        C520   1.405   1_455  A
C519        N526   1.426       .  S
C520        C521   1.402       .  A
C520        H525   1.084       .  S
C521        C522   1.412       .  A
C522        N523   1.427       .  S
N523        O527   1.262   1_655  A
N523        O528   1.262       .  A
N526        O530   1.262   1_455  A
N526        O529   1.262       .  A
C531        C532   1.400       .  A
C531        C536   1.395       .  A
C531        H538   1.085       .  S
C532        C533   1.414       .  A
C533        C534   1.395       .  A
C533        N540   1.427       .  S
C534        C535   1.399       .  A
C534        H539   1.085       .  S
C535        C536   1.414       .  A
C536        N537   1.427       .  S
N537        O541   1.262       .  A
N537        O542   1.262       .  A
N540        O544   1.262       .  A
N540        O543   1.262       .  A
C545        C546   1.400       .  A
C545        C550   1.393       .  A
C545        H552   1.084       .  S
C546        C547   1.414       .  A
C547        C548   1.394       .  A
C547        N554   1.427       .  S
C548        C549   1.400       .  A
C548        H553   1.084       .  S
C549        C550   1.413       .  A
C550        N551   1.427       .  S
N551        O555   1.262       .  A
N551        O556   1.262       .  A
N554        O558   1.262       .  A
N554        O557   1.262       .  A
C559        C560   1.400       .  A
C559        C564   1.398       .  A
C559        H566   1.084       .  S
C560        C561   1.415       .  A
C561        C562   1.401       .  A
C561        N568   1.426       .  S
C562        C563   1.402       .  A
C562        H567   1.084       .  S
C563        C564   1.416       .  A
C564        N565   1.426       .  S
N565        O569   1.262       .  A
N565        O570   1.262       .  A
N568        O572   1.262       .  A
N568        O571   1.262       .  A
C573        C574   1.403       .  A
C573        C578   1.407       .  A
C573        H580   1.084       .  S
C574        C575   1.417       .  A
C575        C576   1.395       .  A
C575        N582   1.427       .  S
C576        C577   1.401       .  A
C576        H581   1.084       .  S
C577        C578   1.419       .  A
C578        N579   1.426   1_565  S
N579        O583   1.262       .  A
N579        O584   1.262   1_545  A
N582        O586   1.262       .  A
N582        O585   1.262       .  A
C587        C588   1.403       .  A
C587        C592   1.405       .  A
C587        H594   1.084       .  S
C588        C589   1.415       .  A
C589        C590   1.401       .  A
C589        N596   1.427       .  S
C590        C591   1.401       .  A
C590        H595   1.085       .  S
C591        C592   1.416       .  A
C592        N593   1.426       .  S
N593        O597   1.262       .  A
N593        O598   1.262       .  A
N596        O600   1.262       .  A
N596        O599   1.262       .  A
C601        C602   1.400       .  A
C601        C606   1.395       .  A
C601        H608   1.085       .  S
C602        C603   1.414       .  A
C603        C604   1.399       .  A
C603        N610   1.426       .  S
C604        C605   1.400       .  A
C604        H609   1.084       .  S
C605        C606   1.413       .  A
C606        N607   1.427       .  S
N607        O611   1.262       .  A
N607        O612   1.262       .  A
N610        O614   1.262       .  A
N610        O613   1.262       .  A
C615        C616   1.399       .  A
C615        C620   1.398       .  A
C615        H622   1.084       .  S
C616        C617   1.418       .  A
C617        C618   1.395       .  A
C617        N624   1.427       .  S
C618        C619   1.396       .  A
C618        H623   1.084       .  S
C619        C620   1.419       .  A
C620        N621   1.428       .  S
N621        O625   1.262       .  A
N621        O626   1.262       .  A
N624        O628   1.262       .  A
N624        O627   1.262       .  A
C629        C630   1.400       .  A
C629        C634   1.392       .  A
C629        H636   1.084       .  S
C630        C631   1.416       .  A
C631        C632   1.399       .  A
C631        N638   1.427       .  S
C632        C633   1.401       .  A
C632        H637   1.084       .  S
C633        C634   1.412       .  A
C634        N635   1.426       .  S
N635        O639   1.262       .  A
N635        O640   1.262       .  A
N638        O642   1.262       .  A
N638        O641   1.262       .  A
C643        C644   1.404       .  A
C643        C648   1.405       .  A
C643        H650   1.084       .  S
C644        C645   1.414       .  A
C645        C646   1.396       .  A
C645        N652   1.426       .  S
C646        C647   1.401       .  A
C646        H651   1.084       .  S
C647        C648   1.417       .  A
C648        N649   1.427       .  S
N649        O653   1.262       .  A
N649        O654   1.262       .  A
N652        O656   1.262       .  A
N652        O655   1.262       .  A
C657        C658   1.403       .  A
C657        C662   1.394   1_655  A
C657        H664   1.084       .  S
C658        C659   1.413   1_655  A
C659        C660   1.398       .  A
C659        N666   1.426       .  S
C660        C661   1.401       .  A
C660        H665   1.084       .  S
C661        C662   1.412       .  A
C662        N663   1.428   1_455  S
N663        O667   1.262       .  A
N663        O668   1.262   1_655  A
N666        O670   1.262       .  A
N666        O669   1.262       .  A
C671        C672   1.402       .  A
C671        C676   1.397       .  A
C671        H678   1.085       .  S
C672        C673   1.414       .  A
C673        C674   1.400       .  A
C673        N680   1.426       .  S
C674        C675   1.403       .  A
C674        H679   1.084       .  S
C675        C676   1.415       .  A
C676        N677   1.427       .  S
N677        O681   1.262       .  A
N677        O682   1.262       .  A
N680        O684   1.262       .  A
N680        O683   1.262       .  A
C685        C686   1.401       .  A
C685        C690   1.397       .  A
C685        H692   1.084       .  S
C686        C687   1.412       .  A
C687        C688   1.395       .  A
C687        N694   1.427       .  S
C688        C689   1.402       .  A
C688        H693   1.084       .  S
C689        C690   1.415       .  A
C690        N691   1.427       .  S
N691        O695   1.262       .  A
N691        O696   1.262       .  A
N694        O698   1.262       .  A
N694        O697   1.262       .  A
C699        C700   1.403       .  A
C699        C704   1.398       .  A
C699        H706   1.084       .  S
C700        C701   1.415       .  A
C701        C702   1.402       .  A
C701        N708   1.425       .  S
C702        C703   1.402       .  A
C702        H707   1.084       .  S
C703        C704   1.415       .  A
C704        N705   1.428       .  S
N705        O709   1.262       .  A
N705        O710   1.262       .  A
N708        O712   1.262       .  A
N708        O711   1.262       .  A
C713        C714   1.400       .  A
C713        C718   1.394       .  A
C713        H720   1.084       .  S
C714        C715   1.419       .  A
C715        C716   1.399       .  A
C715        N722   1.426       .  S
C716        C717   1.396       .  A
C716        H721   1.085       .  S
C717        C718   1.412       .  A
C718        N719   1.427       .  S
N719        O723   1.262       .  A
N719        O724   1.262       .  A
N722        O726   1.262       .  A
N722        O725   1.262       .  A
C727        C728   1.401       .  A
C727        C732   1.400       .  A
C727        H734   1.084       .  S
C728        C729   1.416       .  A
C729        C730   1.400       .  A
C729        N736   1.427       .  S
C730        C731   1.404   1_565  A
C730        H735   1.084   1_565  S
C731        C732   1.414   1_545  A
C732        N733   1.425       .  S
N733        O737   1.262   1_565  A
N733        O738   1.262       .  A
N736        O740   1.262       .  A
N736        O739   1.262       .  A
C741        C742   1.397       .  A
C741        C746   1.394       .  A
C741        H748   1.085       .  S
C742        C743   1.413       .  A
C743        C744   1.394       .  A
C743        N750   1.428       .  S
C744        C745   1.399       .  A
C744        H749   1.085       .  S
C745        C746   1.414       .  A
C746        N747   1.427       .  S
N747        O751   1.262       .  A
N747        O752   1.262       .  A
N750        O754   1.262       .  A
N750        O753   1.262       .  A
C755        C756   1.402       .  A
C755        C760   1.403       .  A
C755        H762   1.084       .  S
C756        C757   1.415       .  A
C757        C758   1.398       .  A
C757        N764   1.427       .  S
C758        C759   1.402       .  A
C758        H763   1.084       .  S
C759        C760   1.417       .  A
C760        N761   1.426       .  S
N761        O765   1.262       .  A
N761        O766   1.262       .  A
N764        O768   1.262       .  A
N764        O767   1.262       .  A
C769        C770   1.407       .  A
C769        C774   1.399       .  A
C769        H776   1.077       .  S
C770        C771   1.446       .  A
C771        C772   1.400       .  A
C771        N778   1.434       .  S
C772        C773   1.394       .  A
C772        H777   1.085       .  S
C773        C774   1.411       .  A
C774        N775   1.427       .  S
N775        O779   1.261       .  A
N775        O780   1.262       .  A
N778        O782   1.261       .  A
N778        O781   1.262       .  A
C783        C784   1.408       .  A
C783        C788   1.412       .  A
C783        H790   1.072       .  S
C784        C785   1.411       .  A
C785        C786   1.411       .  A
C785        N792   1.431       .  S
C786        C787   1.430       .  A
C786        H791   1.081       .  S
C787        C788   1.431       .  A
C788        N789   1.426       .  S
N789        O793   1.262       .  A
N789        O794   1.263       .  A
N792        O796   1.256       .  A
N792        O795   1.262       .  A
C797        C798   1.413       .  A
C797        C802   1.399       .  A
C797        H804   1.063       .  S
C798        C799   1.444       .  A
C799        C800   1.401       .  A
C799        N806   1.426       .  S
C800        C801   1.389       .  A
C800        H805   1.085       .  S
C801        C802   1.409       .  A
C802        N803   1.428       .  S
N803        O807   1.262       .  A
N803        O808   1.262       .  A
N806        O810   1.262       .  A
N806        O809   1.263       .  A
C811        C812   1.413       .  A
C811        C816   1.413       .  A
C811        H818   1.075       .  S
C812        C813   1.434       .  A
C813        C814   1.398       .  A
C813        N820   1.429       .  S
C814        C815   1.407       .  A
C814        H819   1.084       .  S
C815        C816   1.434       .  A
C816        N817   1.428       .  S
N817        O821   1.261       .  A
N817        O822   1.262       .  A
N820        O824   1.259       .  A
N820        O823   1.261       .  A
C825        C826   1.420       .  A
C825        C830   1.399       .  A
C825        H832   1.077       .  S
C826        C827   1.443       .  A
C827        C828   1.404       .  A
C827        N834   1.428       .  S
C828        C829   1.394       .  A
C828        H833   1.085       .  S
C829        C830   1.405       .  A
C830        N831   1.426       .  S
N831        O835   1.262       .  A
N831        O836   1.262       .  A
N834        O838   1.263       .  A
N834        O837   1.263       .  A
C839        C840   1.416       .  A
C839        C844   1.408       .  A
C839        H846   1.078       .  S
C840        C841   1.423       .  A
C841        C842   1.399       .  A
C841        N848   1.421       .  S
C842        C843   1.405       .  A
C842        H847   1.085       .  S
C843        C844   1.434       .  A
C844        N845   1.428       .  S
N845        O849   1.262       .  A
N845        O850   1.263       .  A
N848        O852   1.261       .  A
N848        O851   1.254       .  A
C853        C854   1.419       .  A
C853        C858   1.424       .  A
C853        H860   1.080       .  S
C854        C855   1.440       .  A
C855        C856   1.413       .  A
C855        N862   1.423       .  S
C856        C857   1.402       .  A
C856        H861   1.074       .  S
C857        C858   1.429       .  A
C858        N859   1.428       .  S
N859        O863   1.261       .  A
N859        O864   1.262       .  A
N862        O866   1.262       .  A
N862        O865   1.263       .  A
C867        C868   1.412       .  A
C867        C872   1.400       .  A
C867        H874   1.083       .  S
C868        C869   1.450       .  A
C869        C870   1.405       .  A
C869        N876   1.439       .  S
C870        C871   1.399       .  A
C870        H875   1.084       .  S
C871        C872   1.410       .  A
C872        N873   1.427       .  S
N873        O877   1.262       .  A
N873        O878   1.262       .  A
N876        O880   1.261       .  A
N876        O879   1.263       .  A
C881        C882   1.412       .  A
C881        C886   1.413       .  A
C881        H888   1.084       .  S
C882        C883   1.408       .  A
C883        C884   1.390       .  A
C883        N890   1.427       .  S
C884        C885   1.410       .  A
C884        H889   1.083       .  S
C885        C886   1.426       .  A
C886        N887   1.430       .  S
N887        O891   1.260       .  A
N887        O892   1.260       .  A
N890        O894   1.262       .  A
N890        O893   1.262       .  A
C895        C896   1.402       .  A
C895        C900   1.405       .  A
C895        H902   1.084       .  S
C896        C897   1.416       .  A
C897        C898   1.397       .  A
C897        N904   1.427       .  S
C898        C899   1.401       .  A
C898        H903   1.084       .  S
C899        C900   1.418       .  A
C900        N901   1.426       .  S
N901        O905   1.262       .  A
N901        O906   1.262       .  A
N904        O908   1.262       .  A
N904        O907   1.262       .  A
C909        C910   1.399       .  A
C909        C914   1.395       .  A
C909        H916   1.085       .  S
C910        C911   1.412       .  A
C911        C912   1.399       .  A
C911        N918   1.426       .  S
C912        C913   1.403       .  A
C912        H917   1.084       .  S
C913        C914   1.415       .  A
C914        N915   1.427       .  S
N915        O919   1.262       .  A
N915        O920   1.262       .  A
N918        O922   1.262       .  A
N918        O921   1.262       .  A
C923        C924   1.400       .  A
C923        C928   1.393       .  A
C923        H930   1.084       .  S
C924        C925   1.414       .  A
C925        C926   1.396       .  A
C925        N932   1.427       .  S
C926        C927   1.401       .  A
C926        H931   1.084       .  S
C927        C928   1.414       .  A
C928        N929   1.427       .  S
N929        O933   1.262       .  A
N929        O934   1.262       .  A
N932        O936   1.262       .  A
N932        O935   1.262       .  A
C937        C938   1.401       .  A
C937        C942   1.403       .  A
C937        H944   1.084       .  S
C938        C939   1.417       .  A
C939        C940   1.399       .  A
C939        N946   1.427       .  S
C940        C941   1.401       .  A
C940        H945   1.084       .  S
C941        C942   1.417       .  A
C942        N943   1.426       .  S
N943        O947   1.262       .  A
N943        O948   1.262       .  A
N946        O950   1.262       .  A
N946        O949   1.262       .  A
C951        C952   1.388       .  A
C951        C956   1.396       .  A
C951        H958   1.084       .  S
C952        C953   1.409       .  A
C953        C954   1.410       .  A
C953        N960   1.429       .  S
C954        C955   1.414       .  A
C954        H959   1.077       .  S
C955        C956   1.436       .  A
C956        N957   1.426       .  S
N957        O961   1.262       .  A
N957        O962   1.261       .  A
N960        O964   1.262       .  A
N960        O963   1.262       .  A
C965        C966   1.403       .  A
C965        C970   1.396       .  A
C965        H972   1.084       .  S
C966        C967   1.411       .  A
C967        C968   1.399       .  A
C967        N974   1.427       .  S
C968        C969   1.405       .  A
C968        H973   1.084       .  S
C969        C970   1.412       .  A
C970        N971   1.426       .  S
N971        O975   1.262       .  A
N971        O976   1.262       .  A
N974        O978   1.262       .  A
N974        O977   1.262       .  A
C979        C980   1.404       .  A
C979        C984   1.403       .  A
C979        H986   1.084       .  S
C980        C981   1.414       .  A
C981        C982   1.398       .  A
C981        N988   1.426       .  S
C982        C983   1.401       .  A
C982        H987   1.085       .  S
C983        C984   1.415       .  A
C984        N985   1.427       .  S
N985        O989   1.262       .  A
N985        O990   1.262       .  A
N988        O992   1.262       .  A
N988        O991   1.262       .  A
C993        C994   1.400       .  A
C993        C998   1.396   1_545  A
C993       H1000   1.084       .  S
C994        C995   1.416       .  A
C995        C996   1.402   1_545  A
C995       N1002   1.427       .  S
C996        C997   1.402       .  A
C996       H1001   1.084       .  S
C997        C998   1.417       .  A
C998        N999   1.427       .  S
N999       O1003   1.262       .  A
N999       O1004   1.262   1_565  A
N1002      O1006   1.262       .  A
N1002      O1005   1.262   1_545  A
C1007      C1008   1.401       .  A
C1007      C1012   1.398       .  A
C1007      H1014   1.085       .  S
C1008      C1009   1.411       .  A
C1009      C1010   1.396       .  A
C1009      N1016   1.426       .  S
C1010      C1011   1.400       .  A
C1010      H1015   1.085       .  S
C1011      C1012   1.413       .  A
C1012      N1013   1.427       .  S
N1013      O1017   1.262       .  A
N1013      O1018   1.262       .  A
N1016      O1020   1.262       .  A
N1016      O1019   1.262       .  A
C1021      C1022   1.397       .  A
C1021      C1026   1.393       .  A
C1021      H1028   1.085       .  S
C1022      C1023   1.415       .  A
C1023      C1024   1.397       .  A
C1023      N1030   1.427       .  S
C1024      C1025   1.401       .  A
C1024      H1029   1.084       .  S
C1025      C1026   1.415       .  A
C1026      N1027   1.426       .  S
N1027      O1031   1.262       .  A
N1027      O1032   1.262       .  A
N1030      O1034   1.262       .  A
N1030      O1033   1.262       .  A
C1035      C1036   1.401       .  A
C1035      C1040   1.400       .  A
C1035      H1042   1.084       .  S
C1036      C1037   1.416       .  A
C1037      C1038   1.401       .  A
C1037      N1044   1.427       .  S
C1038      C1039   1.402       .  A
C1038      H1043   1.084       .  S
C1039      C1040   1.416       .  A
C1040      N1041   1.426       .  S
N1041      O1045   1.262       .  A
N1041      O1046   1.262       .  A
N1044      O1048   1.262       .  A
N1044      O1047   1.262       .  A
C1049      C1050   1.403       .  A
C1049      C1054   1.417       .  A
C1049      H1056   1.084       .  S
C1050      C1051   1.403       .  A
C1051      C1052   1.391       .  A
C1051      N1058   1.427       .  S
C1052      C1053   1.414       .  A
C1052      H1057   1.069       .  S
C1053      C1054   1.438       .  A
C1054      N1055   1.426       .  S
N1055      O1059   1.262       .  A
N1055      O1060   1.263       .  A
N1058      O1062   1.262       .  A
N1058      O1061   1.262       .  A
C1063      C1064   1.403   1_455  A
C1063      C1068   1.400       .  A
C1063      H1070   1.084   1_455  S
C1064      C1065   1.417   1_655  A
C1065      C1066   1.406       .  A
C1065      N1072   1.426       .  S
C1066      C1067   1.404       .  A
C1066      H1071   1.084       .  S
C1067      C1068   1.418       .  A
C1068      N1069   1.427       .  S
N1069      O1073   1.262       .  A
N1069      O1074   1.262       .  A
N1072      O1076   1.262   1_455  A
N1072      O1075   1.262       .  A
C1077      C1078   1.402       .  A
C1077      C1082   1.402       .  A
C1077      H1084   1.084       .  S
C1078      C1079   1.417       .  A
C1079      C1080   1.400       .  A
C1079      N1086   1.427       .  S
C1080      C1081   1.402       .  A
C1080      H1085   1.084       .  S
C1081      C1082   1.416       .  A
C1082      N1083   1.426       .  S
N1083      O1087   1.262       .  A
N1083      O1088   1.262       .  A
N1086      O1090   1.262       .  A
N1086      O1089   1.262       .  A
C1091      C1092   1.400       .  A
C1091      C1096   1.393       .  A
C1091      H1098   1.085       .  S
C1092      C1093   1.409       .  A
C1093      C1094   1.393       .  A
C1093      N1100   1.427       .  S
C1094      C1095   1.402       .  A
C1094      H1099   1.085       .  S
C1095      C1096   1.412       .  A
C1096      N1097   1.427       .  S
N1097      O1101   1.262       .  A
N1097      O1102   1.262       .  A
N1100      O1104   1.262       .  A
N1100      O1103   1.262       .  A
C1105      C1106   1.402       .  A
C1105      C1110   1.397       .  A
C1105      H1112   1.084       .  S
C1106      C1107   1.411       .  A
C1107      C1108   1.402       .  A
C1107      N1114   1.426       .  S
C1108      C1109   1.406       .  A
C1108      H1113   1.084       .  S
C1109      C1110   1.413       .  A
C1110      N1111   1.427       .  S
N1111      O1115   1.262       .  A
N1111      O1116   1.262       .  A
N1114      O1118   1.262       .  A
N1114      O1117   1.262       .  A
C1119      C1120   1.404       .  A
C1119      C1124   1.400       .  A
C1119      H1126   1.085       .  S
C1120      C1121   1.410       .  A
C1121      C1122   1.394       .  A
C1121      N1128   1.426       .  S
C1122      C1123   1.400       .  A
C1122      H1127   1.084       .  S
C1123      C1124   1.411       .  A
C1124      N1125   1.427       .  S
N1125      O1129   1.262       .  A
N1125      O1130   1.262       .  A
N1128      O1132   1.262       .  A
N1128      O1131   1.262       .  A
C1133      C1134   1.404       .  A
C1133      C1138   1.408       .  A
C1133      H1140   1.084       .  S
C1134      C1135   1.416       .  A
C1135      C1136   1.398       .  A
C1135      N1142   1.427       .  S
C1136      C1137   1.402       .  A
C1136      H1141   1.084       .  S
C1137      C1138   1.417       .  A
C1138      N1139   1.426       .  S
N1139      O1143   1.262       .  A
N1139      O1144   1.262       .  A
N1142      O1146   1.262       .  A
N1142      O1145   1.262       .  A
C1147      C1148   1.402       .  A
C1147      C1152   1.399       .  A
C1147      H1154   1.084       .  S
C1148      C1149   1.412       .  A
C1149      C1150   1.392       .  A
C1149      N1156   1.428       .  S
C1150      C1151   1.402       .  A
C1150      H1155   1.085       .  S
C1151      C1152   1.412       .  A
C1152      N1153   1.426       .  S
N1153      O1157   1.262       .  A
N1153      O1158   1.262       .  A
N1156      O1160   1.262       .  A
N1156      O1159   1.262       .  A
C1161      C1162   1.403       .  A
C1161      C1166   1.405   1_655  A
C1161      H1168   1.084       .  S
C1162      C1163   1.411   1_655  A
C1163      C1164   1.392       .  A
C1163      N1170   1.426       .  S
C1164      C1165   1.401       .  A
C1164      H1169   1.084       .  S
C1165      C1166   1.418       .  A
C1166      N1167   1.427       .  S
N1167      O1171   1.262   1_455  A
N1167      O1172   1.262       .  A
N1170      O1174   1.262       .  A
N1170      O1173   1.262   1_455  A
C1175      C1176   1.403       .  A
C1175      C1180   1.404       .  A
C1175      H1182   1.084       .  S
C1176      C1177   1.414       .  A
C1177      C1178   1.396       .  A
C1177      N1184   1.426       .  S
C1178      C1179   1.400       .  A
C1178      H1183   1.084       .  S
C1179      C1180   1.417       .  A
C1180      N1181   1.427       .  S
N1181      O1185   1.262       .  A
N1181      O1186   1.262       .  A
N1184      O1188   1.262       .  A
N1184      O1187   1.262       .  A
C1189      C1190   1.402       .  A
C1189      C1194   1.402       .  A
C1189      H1196   1.084       .  S
C1190      C1191   1.417       .  A
C1191      C1192   1.397       .  A
C1191      N1198   1.427       .  S
C1192      C1193   1.400   1_565  A
C1192      H1197   1.084       .  S
C1193      C1194   1.416   1_545  A
C1194      N1195   1.426   1_565  S
N1195      O1199   1.262   1_545  A
N1195      O1200   1.262       .  A
N1198      O1202   1.262       .  A
N1198      O1201   1.262       .  A
C1203      C1204   1.399       .  A
C1203      C1208   1.398       .  A
C1203      H1210   1.084       .  S
C1204      C1205   1.417       .  A
C1205      C1206   1.394       .  A
C1205      N1212   1.427       .  S
C1206      C1207   1.397       .  A
C1206      H1211   1.085       .  S
C1207      C1208   1.414       .  A
C1208      N1209   1.427       .  S
N1209      O1213   1.262       .  A
N1209      O1214   1.262       .  A
N1212      O1216   1.262       .  A
N1212      O1215   1.262       .  A
C1217      C1218   1.394       .  A
C1217      C1222   1.399       .  A
C1217      H1224   1.085       .  S
C1218      C1219   1.407       .  A
C1219      C1220   1.398       .  A
C1219      N1226   1.426       .  S
C1220      C1221   1.411       .  A
C1220      H1225   1.073       .  S
C1221      C1222   1.433       .  A
C1222      N1223   1.428       .  S
N1223      O1227   1.262       .  A
N1223      O1228   1.262       .  A
N1226      O1230   1.262       .  A
N1226      O1229   1.262       .  A
C1231      C1232   1.396       .  A
C1231      C1236   1.398       .  A
C1231      H1238   1.084       .  S
C1232      C1233   1.404       .  A
C1233      C1234   1.414       .  A
C1233      N1240   1.428       .  S
C1234      C1235   1.419       .  A
C1234      H1239   1.083       .  S
C1235      C1236   1.418       .  A
C1236      N1237   1.425       .  S
N1237      O1241   1.262       .  A
N1237      O1242   1.262       .  A
N1240      O1244   1.262       .  A
N1240      O1243   1.262       .  A
C1245      C1246   1.400       .  A
C1245      C1250   1.394       .  A
C1245      H1252   1.084       .  S
C1246      C1247   1.416       .  A
C1247      C1248   1.396       .  A
C1247      N1254   1.427       .  S
C1248      C1249   1.401       .  A
C1248      H1253   1.084       .  S
C1249      C1250   1.413       .  A
C1250      N1251   1.426       .  S
N1251      O1255   1.262       .  A
N1251      O1256   1.262       .  A
N1254      O1258   1.262       .  A
N1254      O1257   1.262       .  A
C1259      C1260   1.401       .  A
C1259      C1264   1.402       .  A
C1259      H1266   1.084       .  S
C1260      C1261   1.416       .  A
C1261      C1262   1.400       .  A
C1261      N1268   1.426       .  S
C1262      C1263   1.400       .  A
C1262      H1267   1.084       .  S
C1263      C1264   1.417       .  A
C1264      N1265   1.427       .  S
N1265      O1269   1.262       .  A
N1265      O1270   1.262       .  A
N1268      O1272   1.262       .  A
N1268      O1271   1.262       .  A
C1273      C1274   1.419       .  A
C1273      C1278   1.402       .  A
C1273      H1280   1.082       .  S
C1274      C1275   1.435       .  A
C1275      C1276   1.414       .  A
C1275      N1282   1.429       .  S
C1276      C1277   1.405       .  A
C1276      H1281   1.084       .  S
C1277      C1278   1.411       .  A
C1278      N1279   1.426       .  S
N1279      O1283   1.262       .  A
N1279      O1284   1.262       .  A
N1282      O1286   1.262       .  A
N1282      O1285   1.263       .  A
C1287      C1288   1.422       .  A
C1287      C1292   1.394       .  A
C1287      H1294   1.078       .  S
C1288      C1289   1.430       .  A
C1289      C1290   1.406       .  A
C1289      N1296   1.419       .  S
C1290      C1291   1.396       .  A
C1290      H1295   1.085       .  S
C1291      C1292   1.401       .  A
C1292      N1293   1.427       .  S
N1293      O1297   1.262       .  A
N1293      O1298   1.262       .  A
N1296      O1300   1.261       .  A
N1296      O1299   1.259       .  A
C1301      C1302   1.417   1_554  A
C1301      C1306   1.417       .  A
C1301      H1308   1.078       .  S
C1302      C1303   1.432       .  A
C1303      C1304   1.390       .  A
C1303      N1310   1.437       .  S
C1304      C1305   1.410   1_556  A
C1304      H1309   1.079       .  S
C1305      C1306   1.431       .  A
C1306      N1307   1.432       .  S
N1307      O1311   1.262       .  A
N1307      O1312   1.262       .  A
N1310      O1314   1.262       .  A
N1310      O1313   1.263       .  A
C1315      C1316   1.393       .  A
C1315      C1320   1.399       .  A
C1315      H1322   1.085       .  S
C1316      C1317   1.409       .  A
C1317      C1318   1.395       .  A
C1317      N1324   1.424       .  S
C1318      C1319   1.405       .  A
C1318      H1323   1.079       .  S
C1319      C1320   1.443       .  A
C1320      N1321   1.434       .  S
N1321      O1325   1.262       .  A
N1321      O1326   1.263   1_556  A
N1324      O1328   1.262       .  A
N1324      O1327   1.262       .  A
C1329      C1330   1.396       .  A
C1329      C1334   1.405       .  A
C1329      H1336   1.085       .  S
C1330      C1331   1.401       .  A
C1331      C1332   1.393       .  A
C1331      N1338   1.425       .  S
C1332      C1333   1.419       .  A
C1332      H1337   1.079       .  S
C1333      C1334   1.435       .  A
C1334      N1335   1.425       .  S
N1335      O1339   1.261       .  A
N1335      O1340   1.260       .  A
N1338      O1342   1.262       .  A
N1338      O1341   1.262       .  A
C1343      C1344   1.422       .  A
C1343      C1348   1.437       .  A
C1343      H1350   1.083       .  S
C1344      C1345   1.421       .  A
C1345      C1346   1.376       .  A
C1345      N1352   1.427       .  S
C1346      C1347   1.400       .  A
C1346      H1351   1.074   1_554  S
C1347      C1348   1.431       .  A
C1348      N1349   1.425       .  S
N1349      O1353   1.262   1_554  A
N1349      O1354   1.259       .  A
N1352      O1356   1.260       .  A
N1352      O1355   1.253       .  A
C1357      C1358   1.389       .  A
C1357      C1362   1.398       .  A
C1357      H1364   1.085       .  S
C1358      C1359   1.411       .  A
C1359      C1360   1.404       .  A
C1359      N1366   1.426       .  S
C1360      C1361   1.411       .  A
C1360      H1365   1.084       .  S
C1361      C1362   1.451       .  A
C1362      N1363   1.433   1_556  S
N1363      O1367   1.261       .  A
N1363      O1368   1.262       .  A
N1366      O1370   1.262       .  A
N1366      O1369   1.262       .  A
C1371      C1372   1.408       .  A
C1371      C1376   1.392       .  A
C1371      H1378   1.079       .  S
C1372      C1373   1.432       .  A
C1373      C1374   1.413       .  A
C1373      N1380   1.427       .  S
C1374      C1375   1.402       .  A
C1374      H1379   1.084       .  S
C1375      C1376   1.407       .  A
C1376      N1377   1.427       .  S
N1377      O1381   1.261       .  A
N1377      O1382   1.262       .  A
N1380      O1384   1.262       .  A
N1380      O1383   1.262       .  A
C1385      C1386   1.411       .  A
C1385      C1390   1.412       .  A
C1385      H1392   1.087       .  S
C1386      C1387   1.427   1_554  A
C1387      C1388   1.399       .  A
C1387      N1394   1.425       .  S
C1388      C1389   1.400       .  A
C1388      H1393   1.211       .  S
C1389      C1390   1.443   1_556  A
C1390      N1391   1.431       .  S
N1391      O1395   1.263       .  A
N1391      O1396   1.263       .  A
N1394      O1398   1.260       .  A
N1394      O1397   1.263       .  A
C1399      C1400   1.409   1_556  A
C1399      C1404   1.418       .  A
C1399      H1406   1.075       .  S
C1400      C1401   1.425       .  A
C1401      C1402   1.413       .  A
C1401      N1408   1.417       .  S
C1402      C1403   1.416       .  A
C1402      H1407   1.082       .  S
C1403      C1404   1.435   1_554  A
C1404      N1405   1.426       .  S
N1405      O1409   1.262       .  A
N1405      O1410   1.262       .  A
N1408      O1412   1.255       .  A
N1408      O1411   1.262       .  A
C1413      C1414   1.414       .  A
C1413      C1418   1.405       .  A
C1413      H1420   1.072       .  S
C1414      C1415   1.440       .  A
C1415      C1416   1.399       .  A
C1415      N1422   1.427       .  S
C1416      C1417   1.391       .  A
C1416      H1421   1.085       .  S
C1417      C1418   1.408       .  A
C1418      N1419   1.426       .  S
N1419      O1423   1.261       .  A
N1419      O1424   1.262       .  A
N1422      O1426   1.262   1_556  A
N1422      O1425   1.263       .  A
C1427      C1428   1.407       .  A
C1427      C1432   1.394       .  A
C1427      H1434   1.071       .  S
C1428      C1429   1.434       .  A
C1429      C1430   1.406       .  A
C1429      N1436   1.428       .  S
C1430      C1431   1.398       .  A
C1430      H1435   1.084       .  S
C1431      C1432   1.410       .  A
C1432      N1433   1.426       .  S
N1433      O1437   1.262       .  A
N1433      O1438   1.263       .  A
N1436      O1440   1.262   1_554  A
N1436      O1439   1.263       .  A
C1441      C1442   1.397       .  A
C1441      C1446   1.400       .  A
C1441      H1448   1.085       .  S
C1442      C1443   1.410       .  A
C1443      C1444   1.405       .  A
C1443      N1450   1.426   1_545  S
C1444      C1445   1.422       .  A
C1444      H1449   1.082   1_545  S
C1445      C1446   1.432       .  A
C1446      N1447   1.423       .  S
N1447      O1451   1.262       .  A
N1447      O1452   1.262       .  A
N1450      O1454   1.262       .  A
N1450      O1453   1.262       .  A
C1455      C1456   1.403       .  A
C1455      C1460   1.415       .  A
C1455      H1462   1.084       .  S
C1456      C1457   1.404       .  A
C1457      C1458   1.394       .  A
C1457      N1464   1.428       .  S
C1458      C1459   1.420       .  A
C1458      H1463   1.076       .  S
C1459      C1460   1.447       .  A
C1460      N1461   1.438       .  S
N1461      O1465   1.261   1_545  A
N1461      O1466   1.262       .  A
N1464      O1468   1.262       .  A
N1464      O1467   1.262       .  A
C1469      C1470   1.417   1_554  A
C1469      C1474   1.415       .  A
C1469      H1476   1.075       .  S
C1470      C1471   1.448       .  A
C1471      C1472   1.405       .  A
C1471      N1478   1.431       .  S
C1472      C1473   1.402       .  A
C1472      H1477   1.085       .  S
C1473      C1474   1.434   1_556  A
C1474      N1475   1.431       .  S
N1475      O1479   1.262       .  A
N1475      O1480   1.262       .  A
N1478      O1482   1.262       .  A
N1478      O1481   1.262       .  A
C1483      C1484   1.416       .  A
C1483      C1488   1.401       .  A
C1483      H1490   1.084       .  S
C1484      C1485   1.435       .  A
C1485      C1486   1.402       .  A
C1485      N1492   1.428       .  S
C1486      C1487   1.400       .  A
C1486      H1491   1.084       .  S
C1487      C1488   1.409       .  A
C1488      N1489   1.426       .  S
N1489      O1493   1.262       .  A
N1489      O1494   1.262       .  A
N1492      O1496   1.261       .  A
N1492      O1495   1.262       .  A
C1497      C1498   1.420       .  A
C1497      C1502   1.396       .  A
C1497      H1504   1.077       .  S
C1498      C1499   1.435       .  A
C1499      C1500   1.401       .  A
C1499      N1506   1.429       .  S
C1500      C1501   1.395       .  A
C1500      H1505   1.085       .  S
C1501      C1502   1.406       .  A
C1502      N1503   1.428       .  S
N1503      O1507   1.262       .  A
N1503      O1508   1.262       .  A
N1506      O1510   1.262   1_554  A
N1506      O1509   1.261       .  A
C1511      C1512   1.407       .  A
C1511      C1516   1.409   1_655  A
C1511      H1518   1.078       .  S
C1512      C1513   1.429   1_556  A
C1513      C1514   1.394   1_655  A
C1513      N1520   1.431       .  S
C1514      C1515   1.409   1_554  A
C1514      H1519   1.080       .  S
C1515      C1516   1.438       .  A
C1516      N1517   1.428       .  S
N1517      O1521   1.262       .  A
N1517      O1522   1.263   1_455  A
N1520      O1524   1.261       .  A
N1520      O1523   1.262       .  A
C1525      C1526   1.423       .  A
C1525      C1530   1.405       .  A
C1525      H1532   1.079       .  S
C1526      C1527   1.436       .  A
C1527      C1528   1.402       .  A
C1527      N1534   1.425       .  S
C1528      C1529   1.395       .  A
C1528      H1533   1.085       .  S
C1529      C1530   1.408       .  A
C1530      N1531   1.426       .  S
N1531      O1535   1.262       .  A
N1531      O1536   1.262       .  A
N1534      O1538   1.263       .  A
N1534      O1537   1.263   1_556  A
C1539      C1540   1.414       .  A
C1539      C1544   1.389       .  A
C1539      H1546   1.083       .  S
C1540      C1541   1.437       .  A
C1541      C1542   1.405       .  A
C1541      N1548   1.435       .  S
C1542      C1543   1.403       .  A
C1542      H1547   1.084       .  S
C1543      C1544   1.406       .  A
C1544      N1545   1.426       .  S
N1545      O1549   1.262       .  A
N1545      O1550   1.262       .  A
N1548      O1552   1.261       .  A
N1548      O1551   1.261       .  A
C1553      C1554   1.415   1_556  A
C1553      C1558   1.408   1_545  A
C1553      H1560   1.058       .  S
C1554      C1555   1.441       .  A
C1555      C1556   1.410       .  A
C1555      N1562   1.427       .  S
C1556      C1557   1.409   1_545  A
C1556      H1561   1.079   1_545  S
C1557      C1558   1.420   1_554  A
C1558      N1559   1.431       .  S
N1559      O1563   1.261       .  A
N1559      O1564   1.261       .  A
N1562      O1566   1.262       .  A
N1562      O1565   1.262       .  A
C1567      C1568   1.393       .  A
C1567      C1572   1.400       .  A
C1567      H1574   1.069       .  S
C1568      C1569   1.439   1_556  A
C1569      C1570   1.416       .  A
C1569      N1576   1.437       .  S
C1570      C1571   1.412   1_554  A
C1570      H1575   1.076       .  S
C1571      C1572   1.437       .  A
C1572      N1573   1.436       .  S
N1573      O1577   1.262       .  A
N1573      O1578   1.264       .  A
N1576      O1580   1.261       .  A
N1576      O1579   1.260       .  A
C1581      C1582   1.404       .  A
C1581      C1586   1.397       .  A
C1581      H1588   1.079       .  S
C1582      C1583   1.439       .  A
C1583      C1584   1.406       .  A
C1583      N1590   1.430   1_655  S
C1584      C1585   1.397       .  A
C1584      H1589   1.084       .  S
C1585      C1586   1.414       .  A
C1586      N1587   1.425       .  S
N1587      O1591   1.262       .  A
N1587      O1592   1.262       .  A
N1590      O1594   1.262   1_456  A
N1590      O1593   1.263       .  A
C1595      C1596   1.409       .  A
C1595      C1600   1.405       .  A
C1595      H1602   1.078       .  S
C1596      C1597   1.441       .  A
C1597      C1598   1.404       .  A
C1597      N1604   1.430       .  S
C1598      C1599   1.394       .  A
C1598      H1603   1.085       .  S
C1599      C1600   1.411       .  A
C1600      N1601   1.426       .  S
N1601      O1605   1.262       .  A
N1601      O1606   1.262   1_655  A
N1604      O1608   1.262   1_554  A
N1604      O1607   1.263       .  A
C1609      C1610   1.407       .  A
C1609      C1614   1.402       .  A
C1609      H1616   1.082       .  S
C1610      C1611   1.447       .  A
C1611      C1612   1.402       .  A
C1611      N1618   1.433       .  S
C1612      C1613   1.392       .  A
C1612      H1617   1.085       .  S
C1613      C1614   1.411       .  A
C1614      N1615   1.426       .  S
N1615      O1619   1.261       .  A
N1615      O1620   1.262       .  A
N1618      O1622   1.261       .  A
N1618      O1621   1.262       .  A
C1623      C1624   1.409       .  A
C1623      C1628   1.384       .  A
C1623      H1630   1.075       .  S
C1624      C1625   1.431       .  A
C1625      C1626   1.420       .  A
C1625      N1632   1.427   1_455  S
C1626      C1627   1.405       .  A
C1626      H1631   1.084       .  S
C1627      C1628   1.401       .  A
C1628      N1629   1.430       .  S
N1629      O1633   1.261       .  A
N1629      O1634   1.262       .  A
N1632      O1636   1.260       .  A
N1632      O1635   1.262   1_655  A
C1637      C1638   1.407       .  A
C1637      C1642   1.385   1_455  A
C1637      H1644   1.075       .  S
C1638      C1639   1.430   1_455  A
C1639      C1640   1.427       .  A
C1639      N1646   1.424       .  S
C1640      C1641   1.422       .  A
C1640      H1645   1.082       .  S
C1641      C1642   1.408       .  A
C1642      N1643   1.399   1_545  S
N1643      O1647   1.258       .  A
N1643      O1648   1.260       .  A
N1646      O1650   1.261       .  A
N1646      O1649   1.262       .  A
C1651      C1652   1.407       .  A
C1651      C1656   1.397       .  A
C1651      H1658   1.079       .  S
C1652      C1653   1.437       .  A
C1653      C1654   1.397       .  A
C1653      N1660   1.431   1_545  S
C1654      C1655   1.394       .  A
C1654      H1659   1.084       .  S
C1655      C1656   1.415       .  A
C1656      N1657   1.426       .  S
N1657      O1661   1.262       .  A
N1657      O1662   1.262       .  A
N1660      O1664   1.262       .  A
N1660      O1663   1.263       .  A
C1665      C1666   1.416       .  A
C1665      C1670   1.383       .  A
C1665      H1672   1.079       .  S
C1666      C1667   1.429       .  A
C1667      C1668   1.409       .  A
C1667      N1674   1.423       .  S
C1668      C1669   1.399       .  A
C1668      H1673   1.084       .  S
C1669      C1670   1.400       .  A
C1670      N1671   1.425       .  S
N1671      O1675   1.262       .  A
N1671      O1676   1.262       .  A
N1674      O1678   1.256   1_545  A
N1674      O1677   1.260       .  A
C1679      C1680   1.423       .  A
C1679      C1684   1.414       .  A
C1679      H1686   1.082       .  S
C1680      C1681   1.443       .  A
C1681      C1682   1.418       .  A
C1681      N1688   1.434       .  S
C1682      C1683   1.405       .  A
C1682      H1687   1.079       .  S
C1683      C1684   1.433       .  A
C1684      N1685   1.434       .  S
N1685      O1689   1.261       .  A
N1685      O1690   1.263       .  A
N1688      O1692   1.262       .  A
N1688      O1691   1.263       .  A
C1693      C1694   1.415       .  A
C1693      C1698   1.391       .  A
C1693      H1700   1.079       .  S
C1694      C1695   1.437       .  A
C1695      C1696   1.408       .  A
C1695      N1702   1.426   1_655  S
C1696      C1697   1.396       .  A
C1696      H1701   1.085       .  S
C1697      C1698   1.405       .  A
C1698      N1699   1.427       .  S
N1699      O1703   1.262       .  A
N1699      O1704   1.262       .  A
N1702      O1706   1.262       .  A
N1702      O1705   1.262       .  A
C1707      C1708   1.419       .  A
C1707      C1712   1.392       .  A
C1707      H1714   1.078       .  S
C1708      C1709   1.434       .  A
C1709      C1710   1.408       .  A
C1709      N1716   1.429       .  S
C1710      C1711   1.398       .  A
C1710      H1715   1.085       .  S
C1711      C1712   1.402       .  A
C1712      N1713   1.426       .  S
N1713      O1717   1.262       .  A
N1713      O1718   1.262       .  A
N1716      O1720   1.259   1_655  A
N1716      O1719   1.255       .  A
C1721      C1722   1.408       .  A
C1721      C1726   1.419       .  A
C1721      H1728   1.070       .  S
C1722      C1723   1.418       .  A
C1723      C1724   1.421       .  A
C1723      N1730   1.422       .  S
C1724      C1725   1.406       .  A
C1724      H1729   1.075       .  S
C1725      C1726   1.436       .  A
C1726      N1727   1.436       .  S
N1727      O1731   1.260       .  A
N1727      O1732   1.260       .  A
N1730      O1734   1.260       .  A
N1730      O1733   1.262       .  A
C1735      C1736   1.404       .  A
C1735      C1740   1.407       .  A
C1735      H1742   1.077       .  S
C1736      C1737   1.435       .  A
C1737      C1738   1.435       .  A
C1737      N1744   1.437       .  S
C1738      C1739   1.415   1_545  A
C1738      H1743   1.065       .  S
C1739      C1740   1.430   1_565  A
C1740      N1741   1.419   1_545  S
N1741      O1745   1.257       .  A
N1741      O1746   1.262       .  A
N1744      O1748   1.259       .  A
N1744      O1747   1.260       .  A
C1749      C1750   1.425       .  A
C1749      C1754   1.404       .  A
C1749      H1756   1.074       .  S
C1750      C1751   1.462       .  A
C1751      C1752   1.411       .  A
C1751      N1758   1.428       .  S
C1752      C1753   1.387       .  A
C1752      H1757   1.086       .  S
C1753      C1754   1.403       .  A
C1754      N1755   1.426       .  S
N1755      O1759   1.262       .  A
N1755      O1760   1.262       .  A
N1758      O1762   1.262       .  A
N1758      O1761   1.264   1_565  A
C1763      C1764   1.394       .  A
C1763      C1768   1.401       .  A
C1763      H1770   1.085       .  S
C1764      C1765   1.404       .  A
C1765      C1766   1.402       .  A
C1765      N1772   1.425       .  S
C1766      C1767   1.420       .  A
C1766      H1771   1.081       .  S
C1767      C1768   1.454       .  A
C1768      N1769   1.437       .  S
N1769      O1773   1.262       .  A
N1769      O1774   1.260       .  A
N1772      O1776   1.262       .  A
N1772      O1775   1.262       .  A
