geometry optimzed in LAMMPS
_audit_creation_date              2020-11-30 
_audit_creation_method            'lammps2cif' 
_symmetry_space_group_name_H-M    'P1' 
_symmetry_Int_Tables_number       1 
_symmetry_cell_setting            triclinic 
loop_ 
_symmetry_equiv_pos_as_xyz 
  x,y,z 
_cell_length_a                    43.32590825 
_cell_length_b                    53.383493389207246 
_cell_length_c                    24.278901614415286 
_cell_angle_alpha                 89.41885192044235 
_cell_angle_beta                  89.9629832906587 
_cell_angle_gamma                 90.15813335193816 
loop_ 
_atom_site_label 
_atom_site_type_symbol 
_atom_site_fract_x 
_atom_site_fract_y 
_atom_site_fract_z 
_atom_site_charge 
N1          N  0.50316341  0.46125935  0.99552968    -0.36200
N2          N  0.45509626  0.49864071  0.99746514    -0.56700
N3          N  0.50246581  0.53729530  0.98575953    -0.36200
N4          N  0.55068232  0.49962593  0.98850887    -0.56700
C5          C  0.47867414  0.44682265  0.00989284     0.27400
C6          C  0.52882181  0.44747175  0.00429430     0.27400
C7          C  0.47725917  0.55140058  0.99612052     0.27400
C8          C  0.52758549  0.55193637  0.99408556     0.27400
C9          C  0.43721577  0.47801516  0.99227970     0.36000
C10         C  0.43671762  0.51851210  0.98696546     0.36000
C11         C  0.56843508  0.47938803  0.97887053     0.36000
C12         C  0.56826215  0.51995219  0.97719333     0.36000
C13         C  0.48898504  0.42360349  0.02818397    -0.21500
C14         C  0.52061541  0.42409525  0.02507978    -0.21500
C15         C  0.48639698  0.57536056  0.01047925    -0.21500
C16         C  0.51806461  0.57575078  0.00897531    -0.21500
C17         C  0.40715678  0.48486658  0.97982521    -0.22500
C18         C  0.40687670  0.51053797  0.97623681    -0.22500
C19         C  0.59758619  0.48685305  0.96172500    -0.22500
C20         C  0.59758742  0.51260460  0.96124021    -0.22500
C21         C  0.44738068  0.45316687  0.00115968    -0.17900
C22         C  0.55909869  0.45436664  0.98848724    -0.17900
C23         C  0.55872966  0.54493666  0.98503512    -0.17900
C24         C  0.44616575  0.54379614  0.98964757    -0.17900
H25         H  0.47528075  0.40761659  0.04096040     0.15000
H26         H  0.53580633  0.40865743  0.03520656     0.15000
H27         H  0.47174131  0.59108202  0.02033906     0.15000
H28         H  0.53228764  0.59198030  0.01706019     0.15000
H29         H  0.38740780  0.47270439  0.97425996     0.13300
H30         H  0.38693624  0.52200859  0.96707577     0.13300
H31         H  0.61697834  0.47502293  0.95158281     0.13300
H32         H  0.61701466  0.52449006  0.95064836     0.13300
H33         H  0.50224594  0.47788926  0.97312272     0.26600
H34         H  0.50232941  0.51973710  0.96784767     0.26600
N35         N  0.00396828  0.96110270  0.98030725    -0.36200
N36         N  0.04992732  0.00007589  0.97292349    -0.56700
N37         N  0.00088414  0.03704835  0.97973632    -0.36200
N38         N  0.95504461  0.99794149  0.98289333    -0.56700
C39         C  0.02920485  0.94819581  0.96456055     0.27400
C40         C  0.97909601  0.94716151  0.96665434     0.27400
C41         C  0.02497422  0.05154429  0.96381630     0.27400
C42         C  0.97488890  0.05036451  0.97003708     0.27400
C43         C  0.06879924  0.98040239  0.98226784     0.36000
C44         C  0.06718547  0.02086822  0.97972896     0.36000
C45         C  0.93852507  0.97709024  0.99421417     0.36000
C46         C  0.93677816  0.01753835  0.99510464     0.36000
C47         C  0.02037291  0.92590940  0.94034637    -0.21500
C48         C  0.98866313  0.92533945  0.94123995    -0.21500
C49         C  0.01420607  0.07437839  0.94411656    -0.21500
C50         C  0.98256713  0.07361609  0.94794936    -0.21500
C51         C  0.09829173  0.98867532  0.99467263    -0.22500
C52         C  0.09730034  0.01442183  0.99283221    -0.22500
C53         C  0.90962824  0.98343354  0.01427718    -0.22500
C54         C  0.90846897  0.00917640  0.01454952    -0.22500
C55         C  0.05995637  0.95521697  0.97542802    -0.17900
C56         C  0.94826285  0.95270889  0.98090882    -0.17900
C57         C  0.94461282  0.04268773  0.98394567    -0.17900
C58         C  0.05645250  0.04545911  0.97063572    -0.17900
H59         H  0.03526696  0.91148119  0.92420491     0.15000
H60         H  0.97431312  0.91030954  0.92597071     0.15000
H61         H  0.02776959  0.09009416  0.92918067     0.15000
H62         H  0.96701854  0.08862076  0.93648157     0.15000
H63         H  0.11847247  0.97737336  0.00312577     0.13300
H64         H  0.11656176  0.02694926  0.99979425     0.13300
H65         H  0.89108483  0.97086598  0.02614057     0.13300
H66         H  0.88890372  0.02043359  0.02661179     0.13300
H67         H  0.00391520  0.97679567  0.00541178     0.26600
H68         H  0.00235110  0.02037748  0.00206875     0.26600
O69         O  0.18852878  0.26720894  0.03410929    -0.78100
C70         C  0.19928402  0.28036069  0.86079437     0.83000
O71         O  0.23077035  0.18985892  0.96363162    -0.79200
O72         O  0.29081489  0.24530419  0.84841793    -0.80700
O73         O  0.29073129  0.29808989  0.01525472    -0.80500
O74         O  0.22901650  0.27830119  0.08451333    -0.79100
Zn75       Zn  0.20547724  0.24984374  0.96735436     1.55700
O76         O  0.29318250  0.29850392  0.92319127    -0.80500
Cd77       Cd  0.26546207  0.26648246  0.03582748     1.59700
Cd78       Cd  0.26660279  0.21530226  0.96482314     1.59600
O79         O  0.29340034  0.24228377  0.08192194    -0.80500
O80         O  0.25028076  0.25022343  0.96683432    -1.91000
Cd81       Cd  0.26538361  0.26869384  0.89959304     1.59900
O82         O  0.29382504  0.20742961  0.03255452    -0.80400
O83         O  0.22837912  0.28257678  0.85393588    -0.79100
C84         C  0.20160054  0.19267557  0.96402730     0.83400
C85         C  0.19995003  0.27756881  0.07652435     0.83100
O86         O  0.18817970  0.26819039  0.90161622    -0.78000
C87         C  0.30002205  0.30775110  0.96993679     0.83900
O88         O  0.18946092  0.21438585  0.96587092    -0.78100
C89         C  0.30224502  0.21973659  0.07465346     0.84000
C90         C  0.29973909  0.22260564  0.85306337     0.84400
O91         O  0.29286909  0.20926043  0.89515122    -0.80600
O92         O  0.80808607  0.26417983  0.89548718    -0.78100
C93         C  0.79592765  0.27567470  0.06941864     0.83000
O94         O  0.76878162  0.18510470  0.96178958    -0.79200
O95         O  0.70595805  0.23716162  0.07715221    -0.80700
O96         O  0.70414838  0.29391201  0.91728209    -0.80500
O97         O  0.76712727  0.27734376  0.84860423    -0.79100
Zn98       Zn  0.79174572  0.24592489  0.96246571     1.55700
O99         O  0.70243976  0.29180057  0.00883705    -0.80500
Cd100      Cd  0.73112668  0.26363304  0.89578452     1.59700
Cd101      Cd  0.73209807  0.20987209  0.96170285     1.59600
O102        O  0.70439017  0.24022165  0.84811833    -0.80500
O103        O  0.74702055  0.24537887  0.96226304    -1.91000
Cd104      Cd  0.73098112  0.26215780  0.02945109     1.59900
O105        O  0.70526021  0.20364995  0.89300051    -0.80400
O106        O  0.76678739  0.27631187  0.07659268    -0.79100
C107        C  0.79786914  0.18866788  0.96378678     0.83400
C108        C  0.79625822  0.27590740  0.85470446     0.83100
O109        O  0.80773378  0.26459397  0.02826573    -0.78000
C110        C  0.69482717  0.30222283  0.96337887     0.83900
O111        O  0.80919054  0.21074370  0.96439726    -0.78100
C112        C  0.69630423  0.21732205  0.85274427     0.84000
C113        C  0.69775658  0.21432467  0.07231722     0.84400
O114        O  0.70551213  0.20150965  0.03054860    -0.80600
O115        O  0.80915236  0.73659915  0.02792905    -0.78100
C116        C  0.78931164  0.72206089  0.85653734     0.83000
O117        O  0.76840735  0.81393649  0.96434447    -0.79200
O118        O  0.70097919  0.76091618  0.85567751    -0.80700
O119        O  0.70544558  0.70715953  0.02218940    -0.80500
O120        O  0.76945688  0.72699189  0.08215184    -0.79100
Zn121      Zn  0.79020560  0.75336484  0.96131521     1.55700
O122        O  0.69860110  0.70782775  0.93108738    -0.80500
Cd123      Cd  0.73224773  0.73832707  0.03664917     1.59700
Cd124      Cd  0.73138256  0.78996641  0.96572164     1.59600
O125        O  0.70826744  0.76295134  0.08523978    -0.80500
O126        O  0.74570289  0.75454553  0.96654292    -1.91000
Cd127      Cd  0.72663488  0.73661421  0.90335974     1.59900
O128        O  0.70717589  0.79829602  0.03598650    -0.80400
O129        O  0.76000340  0.72110280  0.85309760    -0.79100
C130        C  0.79729562  0.81013761  0.96070798     0.83400
C131        C  0.79830307  0.72764833  0.07275916     0.83100
O132        O  0.80271923  0.73387976  0.89511240    -0.78000
C133        C  0.69374960  0.69815190  0.97852164     0.83900
O134        O  0.80840347  0.78813726  0.95704927    -0.78100
C135        C  0.70061925  0.78583738  0.07944404     0.84000
C136        C  0.69463641  0.78415833  0.85836758     0.84400
O137        O  0.70425161  0.79766118  0.89783085    -0.80600
O138        O  0.18996081  0.73088069  0.90010704    -0.78100
C139        C  0.19885296  0.72060255  0.07460867     0.83000
O140        O  0.23115658  0.80953268  0.96887926    -0.79200
O141        O  0.29034938  0.75466269  0.08520552    -0.80700
O142        O  0.29357846  0.70025171  0.92584137    -0.80500
O143        O  0.23135535  0.71871414  0.85295360    -0.79100
Zn144      Zn  0.20602270  0.74938460  0.96594297     1.55700
O145        O  0.29263733  0.70104242  0.01759695    -0.80500
Cd146      Cd  0.26730593  0.73109964  0.90198612     1.59700
Cd147      Cd  0.26699247  0.78400446  0.96828358     1.59600
O148        O  0.29449823  0.75498616  0.85451788    -0.80500
O149        O  0.25079860  0.74891163  0.96780971    -1.91000
Cd150      Cd  0.26489665  0.73117412  0.03606963     1.59900
O151        O  0.29441774  0.79103990  0.90004178    -0.80400
O152        O  0.22782867  0.71821625  0.08181288    -0.79100
C153        C  0.20198048  0.80660495  0.96653314     0.83400
C154        C  0.20218269  0.72003408  0.85906386     0.83100
O155        O  0.18815936  0.73224260  0.03281048    -0.78000
C156        C  0.30137782  0.69118653  0.97265070     0.83900
O157        O  0.18979379  0.78488093  0.96405002    -0.78100
C158        C  0.30293713  0.77777899  0.85941995     0.84000
C159        C  0.29993226  0.77711659  0.07982665     0.84400
O160        O  0.29331618  0.79038264  0.03755228    -0.80600
N161        N  0.99589074  0.33958574  0.54508050    -0.36200
N162        N  0.94756344  0.34314152  0.46081804    -0.56700
N163        N  0.99632031  0.34223119  0.37981094    -0.36200
N164        N  0.04455281  0.34147702  0.46397677    -0.56700
C165        C  0.97061433  0.34393856  0.57605419     0.27400
C166        C  0.02077952  0.34281785  0.57786187     0.27400
C167        C  0.97155746  0.34732080  0.34769234     0.27400
C168        C  0.02183058  0.34674563  0.34921049     0.27400
C169        C  0.93062453  0.33593696  0.50493721     0.36000
C170        C  0.93077856  0.33717435  0.41587679     0.36000
C171        C  0.06129253  0.33437876  0.50844644     0.36000
C172        C  0.06153707  0.33562941  0.41926395     0.36000
C173        C  0.97951022  0.35034346  0.62896627    -0.21500
C174        C  0.01122443  0.34969429  0.63006310    -0.21500
C175        C  0.98144539  0.35572710  0.29641389    -0.21500
C176        C  0.01322777  0.35535692  0.29736088    -0.21500
C177        C  0.90256455  0.32612111  0.48812675    -0.22500
C178        C  0.90272926  0.32676776  0.43157965    -0.22500
C179        C  0.08940139  0.32466266  0.49201397    -0.22500
C180        C  0.08954338  0.32540454  0.43544246    -0.22500
C181        C  0.94007343  0.33838973  0.56019629    -0.17900
C182        C  0.05143606  0.33670124  0.56363523    -0.17900
C183        C  0.05211356  0.33956595  0.36410693    -0.17900
C184        C  0.94071633  0.34092936  0.36097886    -0.17900
H185        H  0.96465482  0.35402639  0.66380019     0.15000
H186        H  0.02557072  0.35290975  0.66579895     0.15000
H187        H  0.96721196  0.36048220  0.26122346     0.15000
H188        H  0.02829027  0.35974680  0.26298629     0.15000
H189        H  0.88416473  0.31880335  0.51387232     0.13300
H190        H  0.88451425  0.31991349  0.40520056     0.13300
H191        H  0.10765203  0.31737475  0.51797384     0.13300
H192        H  0.10798837  0.31879951  0.40931325     0.13300
H193        H  0.99586243  0.33084538  0.50719717     0.26600
H194        H  0.99586054  0.33206287  0.41636361     0.26600
N195        N  0.99733264  0.66339525  0.38861937    -0.36200
N196        N  0.04500243  0.65669505  0.47191151    -0.56700
N197        N  0.99665094  0.66131656  0.55530830    -0.36200
N198        N  0.94878329  0.66480084  0.47106085    -0.56700
C199        C  0.02181853  0.65757274  0.35682336     0.27400
C200        C  0.97198042  0.66191579  0.35645918     0.27400
C201        C  0.02140738  0.65732981  0.58813201     0.27400
C202        C  0.97114928  0.66035475  0.58750919     0.27400
C203        C  0.06322639  0.66062911  0.42734347     0.36000
C204        C  0.06301705  0.66033460  0.51660691     0.36000
C205        C  0.93230550  0.67218246  0.42658975     0.36000
C206        C  0.93164290  0.67054987  0.51559477     0.36000
C207        C  0.01191374  0.65209508  0.30399155    -0.21500
C208        C  0.98038788  0.65477476  0.30378964    -0.21500
C209        C  0.01146314  0.65359546  0.64194630    -0.21500
C210        C  0.97979435  0.65521458  0.64144152    -0.21500
C211        C  0.09323941  0.66550744  0.44371876    -0.22500
C212        C  0.09315267  0.66519830  0.50023440    -0.22500
C213        C  0.90421567  0.68202670  0.44277432    -0.22500
C214        C  0.90374779  0.68093556  0.49921783    -0.22500
C215        C  0.05300595  0.66050029  0.37207477    -0.17900
C216        C  0.94213218  0.66978753  0.37151968    -0.17900
C217        C  0.94078871  0.66682190  0.57092306    -0.17900
C218        C  0.05269084  0.66006874  0.57203932    -0.17900
H219        H  0.02609680  0.64753291  0.26878713     0.15000
H220        H  0.96546582  0.65263937  0.26838868     0.15000
H221        H  0.02551830  0.65089232  0.67830237     0.15000
H222        H  0.96495131  0.65395291  0.67724810     0.15000
H223        H  0.11302216  0.66940331  0.41774819     0.13300
H224        H  0.11292446  0.66876361  0.52625098     0.13300
H225        H  0.88610051  0.68947525  0.41672635     0.13300
H226        H  0.88523124  0.68755207  0.52519240     0.13300
H227        H  0.99844917  0.67209905  0.42645661     0.26600
H228        H  0.99752450  0.66792083  0.51531465     0.26600
N229        N  0.50037229  0.85167199  0.54674314    -0.36200
N230        N  0.45260977  0.84792318  0.46491466    -0.56700
N231        N  0.50107232  0.85045081  0.38131755    -0.36200
N232        N  0.54901653  0.85743963  0.46342980    -0.56700
C233        C  0.47506742  0.85309664  0.57914958     0.27400
C234        C  0.52494258  0.85772417  0.57800898     0.27400
C235        C  0.47558363  0.85143736  0.34942136     0.27400
C236        C  0.52547353  0.85618063  0.34883751     0.27400
C237        C  0.43581233  0.84130064  0.50966550     0.36000
C238        C  0.43617572  0.84058819  0.42073101     0.36000
C239        C  0.56643094  0.85227920  0.50826446     0.36000
C240        C  0.56679907  0.85223344  0.41924059     0.36000
C241        C  0.48359113  0.86057087  0.63148566    -0.21500
C242        C  0.51513147  0.86354373  0.63074431    -0.21500
C243        C  0.48380065  0.85822269  0.29608159    -0.21500
C244        C  0.51534487  0.86123654  0.29572907    -0.21500
C245        C  0.40805223  0.83063897  0.49384245    -0.22500
C246        C  0.40827350  0.83018537  0.43737777    -0.22500
C247        C  0.59573921  0.84483520  0.49249332    -0.22500
C248        C  0.59597906  0.84481968  0.43606740    -0.22500
C249        C  0.44530734  0.84466301  0.56463223    -0.17900
C250        C  0.55595706  0.85343620  0.56325172    -0.17900
C251        C  0.55671592  0.85320979  0.36396164    -0.17900
C252        C  0.44587123  0.84327070  0.36551393    -0.17900
H253        H  0.46879530  0.86254690  0.66710696     0.15000
H254        H  0.52945583  0.86803846  0.66581717     0.15000
H255        H  0.46876409  0.85983805  0.26064287     0.15000
H256        H  0.52940154  0.86555487  0.25997850     0.15000
H257        H  0.38977195  0.82357352  0.52018866     0.13300
H258        H  0.39014893  0.82270970  0.41160259     0.13300
H259        H  0.61472383  0.83924432  0.51876642     0.13300
H260        H  0.61514945  0.83913396  0.41052994     0.13300
H261        H  0.50160505  0.84259771  0.50928315     0.26600
H262        H  0.50229893  0.84213929  0.41999755     0.26600
N263        N  0.49589166  0.14713222  0.54824591    -0.36200
N264        N  0.54734814  0.14283228  0.47002785    -0.56700
N265        N  0.50139853  0.14474275  0.38392112    -0.36200
N266        N  0.45023229  0.14640542  0.46211617    -0.56700
C267        C  0.51981145  0.14226029  0.58222180     0.27400
C268        C  0.46973099  0.14471390  0.57827677     0.27400
C269        C  0.52718743  0.13975364  0.35472991     0.27400
C270        C  0.47705326  0.14079249  0.35038568     0.27400
C271        C  0.56273840  0.14970988  0.51581039     0.36000
C272        C  0.56569775  0.14905671  0.42688695     0.36000
C273        C  0.43226597  0.15424119  0.50409505     0.36000
C274        C  0.43511210  0.15243631  0.41522877     0.36000
C275        C  0.50873992  0.13607954  0.63425466    -0.21500
C276        C  0.47707145  0.13773924  0.63181565    -0.21500
C277        C  0.51915521  0.13195266  0.30238047    -0.21500
C278        C  0.48743141  0.13258584  0.29964053    -0.21500
C279        C  0.59145556  0.15944234  0.50180971    -0.22500
C280        C  0.59330157  0.15905947  0.44536437    -0.22500
C281        C  0.40506869  0.16434093  0.48393739    -0.22500
C282        C  0.40690089  0.16326956  0.42754049    -0.22500
C283        C  0.55099232  0.14766510  0.56998796    -0.17900
C284        C  0.44015704  0.15221393  0.56036185    -0.17900
C285        C  0.44652323  0.14842169  0.36148742    -0.17900
C286        C  0.55738001  0.14625895  0.37108082    -0.17900
H287        H  0.52220353  0.13215447  0.67086735     0.15000
H288        H  0.46136382  0.13520291  0.66610652     0.15000
H289        H  0.53463338  0.12756655  0.26883392     0.15000
H290        H  0.47363229  0.12876935  0.26352362     0.15000
H291        H  0.60893497  0.16670555  0.52922629     0.13300
H292        H  0.61244166  0.16592602  0.42079246     0.13300
H293        H  0.38613005  0.17204403  0.50734468     0.13300
H294        H  0.38964212  0.17008979  0.39893455     0.13300
H295        H  0.49767565  0.15606177  0.51024167     0.26600
H296        H  0.50070751  0.15476460  0.42026619     0.26600
C297        C  0.34418319  0.78617305  0.21344202    -0.27200
C298        C  0.35975004  0.80873089  0.20249833     0.02400
C299        C  0.35507063  0.82114008  0.15186859     0.30500
C300        C  0.33512925  0.81082919  0.11283093    -0.19000
C301        C  0.31974266  0.78802699  0.12324809    -0.28400
C302        C  0.32442766  0.77572835  0.17438132     0.44500
C303        C  0.38204182  0.81829722  0.24321958     0.05700
O304        O  0.37143718  0.84244471  0.13884376    -0.56900
H305        H  0.33236036  0.82049432  0.07370551     0.18700
O306        O  0.30966916  0.75363991  0.18703745    -0.63600
H307        H  0.34760438  0.77647510  0.25239104     0.17100
C308        C  0.37929542  0.84252238  0.26521081     0.29400
C309        C  0.40053746  0.85073938  0.30456753    -0.24500
C310        C  0.42450317  0.83503658  0.32199008    -0.23800
C311        C  0.42724123  0.81087089  0.30020775     0.40800
C312        C  0.40603547  0.80261115  0.26115336    -0.26200
O313        O  0.35492093  0.85759951  0.25088418    -0.58100
H314        H  0.39806654  0.86919420  0.32217850     0.16400
O315        O  0.44989927  0.79492971  0.31848871    -0.59600
H316        H  0.40825927  0.78387689  0.24485451     0.14900
H317        H  0.32472273  0.74030676  0.17815878     0.46800
H318        H  0.36415826  0.87238576  0.23201267     0.42100
H319        H  0.46737826  0.79746872  0.29262915     0.45600
H320        H  0.35588914  0.85598760  0.13569270     0.37100
C321        C  0.40718439  0.80390394  0.67329739    -0.27200
C322        C  0.38308217  0.81928002  0.69116696     0.02400
C323        C  0.37977495  0.84347307  0.66827240     0.30500
C324        C  0.40033416  0.85188231  0.62742377    -0.19000
C325        C  0.42427468  0.83634703  0.60940735    -0.28400
C326        C  0.42768024  0.81228021  0.63265000     0.44500
C327        C  0.36144032  0.80957649  0.73332152     0.05700
O328        O  0.35637007  0.85885008  0.68512275    -0.56900
H329        H  0.39750395  0.87039057  0.60945533     0.18700
O330        O  0.45099142  0.79682987  0.61565091    -0.63600
H331        H  0.41002455  0.78531242  0.69087168     0.17100
C332        C  0.34192988  0.78922184  0.72173678     0.29400
C333        C  0.32287705  0.77919309  0.76300188    -0.24500
C334        C  0.32303701  0.78912968  0.81640645    -0.23800
C335        C  0.34254794  0.80969814  0.82775258     0.40800
C336        C  0.36151937  0.81975315  0.78627309    -0.26200
O337        O  0.34090771  0.77936875  0.66979887    -0.58100
H338        H  0.30786365  0.76361795  0.75306245     0.16400
O339        O  0.34447604  0.81928688  0.87984190    -0.59600
H340        H  0.37687770  0.83516903  0.79578309     0.14900
H341        H  0.44178360  0.78649879  0.58614731     0.46800
H342        H  0.35461766  0.76453152  0.67118130     0.42100
H343        H  0.33081535  0.83415926  0.87951497     0.45600
H344        H  0.33838723  0.85428292  0.66201432     0.37100
C345        C  0.11765404  0.65832109  0.26606024    -0.27200
C346        C  0.11554597  0.68246935  0.24261458     0.02400
C347        C  0.09288618  0.69906237  0.26217825     0.30500
C348        C  0.07279068  0.69144168  0.30404579    -0.19000
C349        C  0.07503786  0.66745711  0.32765807    -0.28400
C350        C  0.09752795  0.65076766  0.30839751     0.44500
C351        C  0.13704058  0.69050644  0.19820101     0.05700
O352        O  0.09043977  0.72292533  0.24115613    -0.56900
H353        H  0.05547025  0.70440243  0.31864490     0.18700
O354        O  0.10003409  0.62719430  0.33085597    -0.63600
H355        H  0.13471966  0.64523584  0.25117034     0.17100
C356        C  0.16922566  0.68902422  0.20515066     0.29400
C357        C  0.18898842  0.69858628  0.16435815    -0.24500
C358        C  0.17721493  0.70973215  0.11600097    -0.23800
C359        C  0.14486088  0.71060451  0.10863902     0.40800
C360        C  0.12520308  0.70098536  0.14940779    -0.26200
O361        O  0.18156413  0.67964274  0.25309622    -0.58100
H362        H  0.21365488  0.69768079  0.17131997     0.16400
O363        O  0.13202466  0.72138582  0.06255587    -0.59600
H364        H  0.10047482  0.70200999  0.14314140     0.14900
H365        H  0.08829814  0.61616326  0.30573649     0.46800
H366        H  0.18968861  0.66288266  0.24357287     0.42100
H367        H  0.12807065  0.70730982  0.03714458     0.45600
H368        H  0.10552005  0.73301509  0.26225121     0.37100
C369        C  0.16646943  0.70362100  0.72193799    -0.27200
C370        C  0.14027989  0.68996452  0.73859314     0.02400
C371        C  0.13532664  0.68526923  0.79510019     0.30500
C372        C  0.15589094  0.69491713  0.83405116    -0.19000
C373        C  0.18178200  0.70893491  0.81732434    -0.28400
C374        C  0.18717044  0.71304175  0.76079679     0.44500
C375        C  0.11753836  0.68198968  0.69671616     0.05700
O376        O  0.11014367  0.67176515  0.81269348    -0.56900
H377        H  0.15155281  0.69153498  0.87746401     0.18700
O378        O  0.21200636  0.72696774  0.74319774    -0.63600
H379        H  0.17060548  0.70731099  0.67858316     0.17100
C380        C  0.10367021  0.69987505  0.66170177     0.29400
C381        C  0.08277222  0.69227016  0.62144932    -0.24500
C382        C  0.07524202  0.66691073  0.61539666    -0.23800
C383        C  0.08878011  0.64893526  0.65050736     0.40800
C384        C  0.10982472  0.65655082  0.69102987    -0.26200
O385        O  0.11032556  0.72488574  0.66671834    -0.58100
H386        H  0.07229736  0.70623430  0.59473354     0.16400
O387        O  0.08203792  0.62398317  0.64464176    -0.59600
H388        H  0.12043236  0.64258899  0.71754448     0.14900
H389        H  0.20457508  0.74452129  0.74194077     0.46800
H390        H  0.09400583  0.73158597  0.69110197     0.42100
H391        H  0.06832074  0.61963025  0.67604427     0.45600
H392        H  0.09347500  0.68426048  0.81730198     0.37100
C393        C  0.59229670  0.81381099  0.67471300    -0.27200
C394        C  0.61761274  0.82851485  0.69017122     0.02400
C395        C  0.62265749  0.85189694  0.66421280     0.30500
C396        C  0.60233768  0.86021331  0.62303782    -0.19000
C397        C  0.57707771  0.84535851  0.60777485    -0.28400
C398        C  0.57212951  0.82205008  0.63385114     0.44500
C399        C  0.63895518  0.81838754  0.73201100     0.05700
O400        O  0.64820867  0.86596958  0.67670980    -0.56900
H401        H  0.60647227  0.87801713  0.60248412     0.18700
O402        O  0.54825481  0.80679469  0.61796570    -0.63600
H403        H  0.58830556  0.79573048  0.69419198     0.17100
C404        C  0.64412151  0.83077959  0.78199054     0.29400
C405        C  0.66260361  0.81960784  0.82251769    -0.24500
C406        C  0.67573579  0.79583974  0.81431631    -0.23800
C407        C  0.67060108  0.78361474  0.76378661     0.40800
C408        C  0.65233478  0.79490112  0.72335878    -0.26200
O409        O  0.63049354  0.85341669  0.79229658    -0.58100
H410        H  0.66605892  0.82936061  0.86094528     0.16400
O411        O  0.68303418  0.76053269  0.75341550    -0.59600
H412        H  0.64834025  0.78514068  0.68507101     0.14900
H413        H  0.53186716  0.80920260  0.64594415     0.46800
H414        H  0.60954901  0.84925626  0.80618734     0.42100
H415        H  0.70286073  0.76402663  0.73437133     0.45600
H416        H  0.64025603  0.88075507  0.69658924     0.37100
C417        C  0.66251646  0.79893167  0.21695658    -0.27200
C418        C  0.64608276  0.82083097  0.20442829     0.02400
C419        C  0.64954661  0.83224985  0.15246651     0.30500
C420        C  0.66818220  0.82107807  0.11273561    -0.19000
C421        C  0.68335721  0.79832376  0.12396665    -0.28400
C422        C  0.68117956  0.78770211  0.17737351     0.44500
C423        C  0.62289149  0.82997349  0.24369457     0.05700
O424        O  0.63374407  0.85372064  0.13935784    -0.56900
H425        H  0.66976524  0.82981112  0.07235931     0.18700
O426        O  0.69653203  0.76608381  0.19111042    -0.63600
H427        H  0.66017294  0.79015644  0.25719994     0.17100
C428        C  0.59721193  0.81490208  0.25673219     0.29400
C429        C  0.57545426  0.82319606  0.29463936    -0.24500
C430        C  0.57892794  0.84647547  0.32010290    -0.23800
C431        C  0.60414476  0.86194564  0.30602553     0.40800
C432        C  0.62598714  0.85365701  0.26770001    -0.26200
O433        O  0.59284914  0.79229771  0.23142592    -0.58100
H434        H  0.55600651  0.81122870  0.30499843     0.16400
O435        O  0.60733198  0.88515677  0.32908855    -0.59600
H436        H  0.64551706  0.86550731  0.25726056     0.14900
H437        H  0.71708812  0.77163791  0.20424410     0.46800
H438        H  0.60033723  0.77953022  0.25814920     0.42100
H439        H  0.62322530  0.88310473  0.35813792     0.45600
H440        H  0.61372170  0.84794886  0.12422896     0.37100
C441        C  0.81847410  0.69330331  0.72331759    -0.27200
C442        C  0.84981120  0.69010462  0.73620138     0.02400
C443        C  0.86013231  0.69504669  0.78986359     0.30500
C444        C  0.83985384  0.70468683  0.82867162    -0.19000
C445        C  0.80883024  0.70932244  0.81537580    -0.28400
C446        C  0.79787171  0.70267160  0.76267643     0.44500
C447        C  0.87240149  0.68374528  0.69296633     0.05700
O448        O  0.89038090  0.69126284  0.80430176    -0.56900
H449        H  0.84871897  0.70896496  0.86923123     0.18700
O450        O  0.76769609  0.70667000  0.74805333    -0.63600
H451        H  0.81024414  0.68950759  0.68209515     0.17100
C452        C  0.87000496  0.66157643  0.66231727     0.29400
C453        C  0.89263509  0.65592755  0.62312994    -0.24500
C454        C  0.91773093  0.67218952  0.61436324    -0.23800
C455        C  0.91996821  0.69436868  0.64476457     0.40800
C456        C  0.89732686  0.70007202  0.68346738    -0.26200
O457        O  0.84583274  0.64532363  0.67055055    -0.58100
H458        H  0.89062403  0.63892781  0.59938585     0.16400
O459        O  0.94373613  0.71092508  0.63555120    -0.59600
H460        H  0.89919792  0.71737434  0.70621291     0.14900
H461        H  0.75749466  0.69008795  0.75186652     0.46800
H462        H  0.85184835  0.63490019  0.70281347     0.42100
H463        H  0.95856833  0.70787050  0.66597104     0.45600
H464        H  0.89179144  0.67319409  0.81383147     0.37100
C465        C  0.83185912  0.70929970  0.21137672    -0.27200
C466        C  0.86110086  0.70075899  0.19621240     0.02400
C467        C  0.86975125  0.70079381  0.14042005     0.30500
C468        C  0.84902135  0.70942245  0.10033227    -0.19000
C469        C  0.81964236  0.71811881  0.11540513    -0.28400
C470        C  0.81113662  0.71794191  0.17156255     0.44500
C471        C  0.88248295  0.69238658  0.23957545     0.05700
O472        O  0.89801020  0.69174956  0.12477503    -0.56900
H473        H  0.85588358  0.70917640  0.05741696     0.18700
O474        O  0.78324338  0.72731466  0.18830093    -0.63600
H475        H  0.82525928  0.70960495  0.25443503     0.17100
C476        C  0.90808522  0.70716102  0.25385821     0.29400
C477        C  0.92708864  0.69967762  0.29742788    -0.24500
C478        C  0.92094940  0.67742951  0.32667876    -0.23800
C479        C  0.89546098  0.66256264  0.31217024     0.40800
C480        C  0.87619674  0.67021169  0.26902514    -0.26200
O481        O  0.91384117  0.72941937  0.22697372    -0.58100
H482        H  0.94665360  0.71125140  0.30859606     0.16400
O483        O  0.88916308  0.64070095  0.34014656    -0.59600
H484        H  0.85634055  0.65886020  0.25841963     0.14900
H485        H  0.77011448  0.71241788  0.19581380     0.46800
H486        H  0.93154066  0.72603564  0.20225242     0.42100
H487        H  0.90140401  0.62769577  0.32118359     0.45600
H488        H  0.91035264  0.70672205  0.11425731     0.37100
C489        C  0.62564036  0.15034536  0.27214244    -0.27200
C490        C  0.61930582  0.17309603  0.24468688     0.02400
C491        C  0.59220547  0.18626466  0.25791640     0.30500
C492        C  0.57249816  0.17709690  0.29904847    -0.19000
C493        C  0.57914809  0.15476332  0.32737115    -0.28400
C494        C  0.60576382  0.14118234  0.31346186     0.44500
C495        C  0.64076914  0.18299967  0.20197305     0.05700
O496        O  0.58405338  0.20741609  0.22878289    -0.56900
H497        H  0.55175328  0.18745250  0.30884181     0.18700
O498        O  0.61199571  0.11870927  0.33888960    -0.63600
H499        H  0.64615651  0.13981721  0.26184494     0.17100
C500        C  0.65278474  0.20744684  0.20554209     0.29400
C501        C  0.67143601  0.21707838  0.16332119    -0.24500
C502        C  0.67867460  0.20274527  0.11681689    -0.23800
C503        C  0.66749091  0.17785475  0.11425905     0.40800
C504        C  0.64866638  0.16824448  0.15658291    -0.26200
O505        O  0.64735060  0.22169986  0.25130283    -0.58100
H506        H  0.68019044  0.23600081  0.16727840     0.16400
O507        O  0.67411916  0.16290268  0.07021867    -0.59600
H508        H  0.63970523  0.14934336  0.15342058     0.14900
H509        H  0.62703148  0.12267718  0.36832439     0.46800
H510        H  0.63630991  0.23683236  0.23788212     0.42100
H511        H  0.69235170  0.15295878  0.08175529     0.45600
H512        H  0.58322934  0.22110676  0.25607242     0.37100
C513        C  0.64542740  0.20889819  0.72647391    -0.27200
C514        C  0.63342994  0.18481957  0.73603378     0.02400
C515        C  0.64273441  0.17128607  0.78306967     0.30500
C516        C  0.66363633  0.18191637  0.81991734    -0.19000
C517        C  0.67539848  0.20624562  0.81109804    -0.28400
C518        C  0.66617725  0.21967341  0.76342020     0.44500
C519        C  0.61103879  0.17419699  0.69674543     0.05700
O520        O  0.63107184  0.14784262  0.79400290    -0.56900
H521        H  0.67015109  0.17115607  0.85612029     0.18700
O522        O  0.67681532  0.24345474  0.75272455    -0.63600
H523        H  0.63867415  0.21941977  0.69004157     0.17100
C524        C  0.58434460  0.18765975  0.68198207     0.29400
C525        C  0.56465803  0.17838114  0.64162829    -0.24500
C526        C  0.57096546  0.15555002  0.61604148    -0.23800
C527        C  0.59678913  0.14146243  0.63239710     0.40800
C528        C  0.61680430  0.15090105  0.67237068    -0.26200
O529        O  0.57756339  0.21009120  0.70618936    -0.58100
H530        H  0.54467118  0.18925873  0.62938560     0.16400
O531        O  0.60313591  0.11893894  0.60827337    -0.59600
H532        H  0.63725684  0.14034862  0.68335044     0.14900
H533        H  0.69504229  0.24125133  0.72854363     0.46800
H534        H  0.56565231  0.20563167  0.73979198     0.42100
H535        H  0.58951545  0.10662275  0.62723012     0.45600
H536        H  0.61139880  0.15073029  0.81382394     0.37100
C537        C  0.86692167  0.30438089  0.13641761    -0.27200
C538        C  0.85624794  0.30909905  0.18989943     0.02400
C539        C  0.82509096  0.30397138  0.20267243     0.30500
C540        C  0.80551583  0.29372607  0.16275809    -0.19000
C541        C  0.81659801  0.28796140  0.10991258    -0.28400
C542        C  0.84758222  0.29379895  0.09680589     0.44500
C543        C  0.87826687  0.31814295  0.23241147     0.05700
O544        O  0.81373439  0.30817320  0.25449624    -0.56900
H545        H  0.78181283  0.28957229  0.17386585     0.18700
O546        O  0.85942662  0.28906173  0.04555583    -0.63600
H547        H  0.89056697  0.30873281  0.12531096     0.17100
C548        C  0.90653622  0.30568885  0.24121696     0.29400
C549        C  0.92671971  0.31382152  0.28224263    -0.24500
C550        C  0.91940633  0.33439124  0.31514496    -0.23800
C551        C  0.89147712  0.34720992  0.30593242     0.40800
C552        C  0.87110826  0.33904208  0.26485226    -0.26200
O553        O  0.91380985  0.28460191  0.21211903    -0.58100
H554        H  0.94793809  0.30358697  0.28939894     0.16400
O555        O  0.88361215  0.36731348  0.33767508    -0.59600
H556        H  0.84968133  0.34904746  0.25832902     0.14900
H557        H  0.85705467  0.30495926  0.02452086     0.46800
H558        H  0.93080641  0.28971586  0.18698151     0.42100
H559        H  0.89168153  0.38217955  0.31747294     0.45600
H560        H  0.81764830  0.29245415  0.27542670     0.37100
C561        C  0.82619119  0.30988374  0.72654354    -0.27200
C562        C  0.85802650  0.30952303  0.73610315     0.02400
C563        C  0.86941509  0.29945701  0.78573773     0.30500
C564        C  0.84899447  0.28900935  0.82427839    -0.19000
C565        C  0.81703996  0.28821936  0.81392320    -0.28400
C566        C  0.80570257  0.29920129  0.76468916     0.44500
C567        C  0.87920974  0.31734506  0.69162777     0.05700
O568        O  0.90045314  0.30004411  0.79702031    -0.56900
H569        H  0.85836443  0.28124309  0.86209871     0.18700
O570        O  0.77476004  0.29931334  0.75282109    -0.63600
H571        H  0.81727655  0.31758315  0.68828082     0.17100
C572        C  0.89831391  0.29949737  0.66653440     0.29400
C573        C  0.91780363  0.30668759  0.62350917    -0.24500
C574        C  0.91814112  0.33149546  0.60435856    -0.23800
C575        C  0.89868742  0.34933606  0.62846647     0.40800
C576        C  0.87929132  0.34219746  0.67208570    -0.26200
O577        O  0.89778143  0.27489984  0.68340486    -0.58100
H578        H  0.93269009  0.29287578  0.60481227     0.16400
O579        O  0.89908670  0.37378363  0.61058550    -0.59600
H580        H  0.86441954  0.35599687  0.69082434     0.14900
H581        H  0.77139518  0.28457710  0.72897915     0.46800
H582        H  0.88103806  0.26701622  0.66173395     0.42100
H583        H  0.88564706  0.37416513  0.57753954     0.45600
H584        H  0.90761562  0.28250765  0.79341761     0.37100
C585        C  0.33742437  0.20979386  0.71418662    -0.27200
C586        C  0.35601334  0.18897376  0.72670872     0.02400
C587        C  0.35568006  0.17914490  0.78077039     0.30500
C588        C  0.33711705  0.19019478  0.82113754    -0.19000
C589        C  0.31873690  0.21121682  0.80884151    -0.28400
C590        C  0.31889063  0.22085861  0.75449617     0.44500
C591        C  0.37705449  0.17891974  0.68379795     0.05700
O592        O  0.37492547  0.15981713  0.79541143    -0.56900
H593        H  0.33771654  0.18256832  0.86264785     0.18700
O594        O  0.30110201  0.24111049  0.74017276    -0.63600
H595        H  0.33736675  0.21759961  0.67281092     0.17100
C596        C  0.37731661  0.15329882  0.66972094     0.29400
C597        C  0.39785629  0.14462092  0.62945490    -0.24500
C598        C  0.41796753  0.16127710  0.60235284    -0.23800
C599        C  0.41728960  0.18685404  0.61554251     0.40800
C600        C  0.39707519  0.19548013  0.65600249    -0.26200
O601        O  0.35737788  0.13666797  0.69446507    -0.58100
H602        H  0.39808501  0.12491323  0.61925757     0.16400
O603        O  0.43675649  0.20350054  0.58960948    -0.59600
H604        H  0.39723762  0.21520428  0.66610985     0.14900
H605        H  0.28175003  0.23391926  0.72522583     0.46800
H606        H  0.33835823  0.13726745  0.67180623     0.42100
H607        H  0.42512254  0.20966227  0.55703919     0.45600
H608        H  0.36116459  0.14542879  0.80410229     0.37100
C609        C  0.35496041  0.17247372  0.14702627    -0.27200
C610        C  0.36365867  0.18567641  0.19411086     0.02400
C611        C  0.35147225  0.20977744  0.20260724     0.30500
C612        C  0.33152704  0.22053945  0.16372991    -0.19000
C613        C  0.32298995  0.20753896  0.11594174    -0.28400
C614        C  0.33476609  0.18307161  0.10829429     0.44500
C615        C  0.38604452  0.17458859  0.23357332     0.05700
O616        O  0.35895346  0.22302231  0.24887922    -0.56900
H617        H  0.32276365  0.23918546  0.17116651     0.18700
O618        O  0.32745372  0.16948939  0.06244950    -0.63600
H619        H  0.36428767  0.15398799  0.13972616     0.17100
C620        C  0.38073460  0.15104862  0.25890503     0.29400
C621        C  0.40121347  0.14201270  0.29908665    -0.24500
C622        C  0.42703576  0.15622124  0.31425311    -0.23800
C623        C  0.43297517  0.17922142  0.28751581     0.40800
C624        C  0.41266529  0.18817973  0.24733784    -0.26200
O625        O  0.35512468  0.13714907  0.24601876    -0.58100
H626        H  0.39648894  0.12430352  0.31963807     0.16400
O627        O  0.45819917  0.19337590  0.30155600    -0.59600
H628        H  0.41738215  0.20607798  0.22759106     0.14900
H629        H  0.30988921  0.15865858  0.07381010     0.46800
H630        H  0.33879801  0.14291194  0.27153181     0.42100
H631        H  0.45101639  0.20428413  0.33177848     0.45600
H632        H  0.34440765  0.21699937  0.27769142     0.37100
C633        C  0.11969723  0.33913490  0.66219309    -0.27200
C634        C  0.11437634  0.31768126  0.69496480     0.02400
C635        C  0.08800839  0.30289150  0.68478066     0.30500
C636        C  0.06777078  0.30941812  0.64219893    -0.19000
C637        C  0.07333262  0.33061824  0.60902337    -0.28400
C638        C  0.09930225  0.34569406  0.61962501     0.44500
C639        C  0.13675512  0.31026639  0.73851937     0.05700
O640        O  0.08209612  0.28172670  0.71556507    -0.56900
H641        H  0.04777321  0.29772349  0.63454225     0.18700
O642        O  0.10496990  0.36676116  0.58842556    -0.63600
H643        H  0.13966159  0.35086148  0.66977831     0.17100
C644        C  0.16819166  0.30667234  0.72609280     0.29400
C645        C  0.18844069  0.29768977  0.76665077    -0.24500
C646        C  0.17782173  0.29178342  0.81996466    -0.23800
C647        C  0.14647377  0.29619039  0.83280564     0.40800
C648        C  0.12633995  0.30535925  0.79231230    -0.26200
O649        O  0.17917779  0.31103803  0.67387089    -0.58100
H650        H  0.21234361  0.29452749  0.75567323     0.16400
O651        O  0.13507221  0.29134342  0.88456590    -0.59600
H652        H  0.10233199  0.30837076  0.80282126     0.14900
H653        H  0.09370197  0.38039608  0.60716473     0.46800
H654        H  0.17600712  0.29508234  0.65406357     0.42100
H655        H  0.13768174  0.30721714  0.90493141     0.45600
H656        H  0.09391179  0.26821073  0.69749567     0.37100
C657        C  0.12939336  0.30741833  0.14174523    -0.27200
C658        C  0.13894835  0.30988473  0.19655958     0.02400
C659        C  0.16886851  0.30227998  0.21163570     0.30500
C660        C  0.18864084  0.29204651  0.17209787    -0.19000
C661        C  0.17894525  0.28913232  0.11726209    -0.28400
C662        C  0.14910874  0.29731096  0.10216470     0.44500
C663        C  0.11658373  0.31857604  0.23823747     0.05700
O664        O  0.17822360  0.30331053  0.26554759    -0.56900
H665        H  0.21133812  0.28578075  0.18477265     0.18700
O666        O  0.13886478  0.29546547  0.04890414    -0.63600
H667        H  0.10639498  0.31321826  0.12968326     0.17100
C668        C  0.12206814  0.34012706  0.26987979     0.29400
C669        C  0.10077004  0.34720890  0.31029256    -0.24500
C670        C  0.07386281  0.33305457  0.31924698    -0.23800
C671        C  0.06817771  0.31180545  0.28689509     0.40800
C672        C  0.08933765  0.30481677  0.24654162    -0.26200
O673        O  0.14810203  0.35433394  0.26158683    -0.58100
H674        H  0.10530026  0.36360986  0.33496511     0.16400
O675        O  0.04214282  0.29755060  0.29503371    -0.59600
H676        H  0.08481097  0.28824145  0.22240654     0.14900
H677        H  0.14368578  0.31190509  0.03150303     0.46800
H678        H  0.14232599  0.36684528  0.23296271     0.42100
H679        H  0.04749495  0.28566083  0.32516859     0.45600
H680        H  0.19314979  0.31740190  0.26704763     0.37100
C681        C  0.87021788  0.14801552  0.96800294    -0.27200
C682        C  0.85742136  0.12392387  0.97148469     0.02400
C683        C  0.82518899  0.12108203  0.97232025     0.30500
C684        C  0.80615437  0.14224259  0.96966394    -0.19000
C685        C  0.81880121  0.16656213  0.96596547    -0.28400
C686        C  0.85130590  0.16922299  0.96538355     0.44500
C687        C  0.87808349  0.10199211  0.97586833     0.05700
O688        O  0.81214404  0.09776268  0.97821166    -0.56900
H689        H  0.78138089  0.13952573  0.97104758     0.18700
O690        O  0.86498359  0.19237951  0.96175221    -0.63600
H691        H  0.89506957  0.15038194  0.96740540     0.17100
C692        C  0.87980736  0.08425036  0.93343566     0.29400
C693        C  0.90051151  0.06421809  0.93773943    -0.24500
C694        C  0.91998628  0.06191553  0.98362454    -0.23800
C695        C  0.91810169  0.07950970  0.02617024     0.40800
C696        C  0.89715814  0.09934664  0.02221608    -0.26200
O697        O  0.86213340  0.08682810  0.88689121    -0.58100
H698        H  0.90223744  0.05098456  0.90433679     0.16400
O699        O  0.93683073  0.07749786  0.07150798    -0.59600
H700        H  0.89605634  0.11291217  0.05505241     0.14900
H701        H  0.86915053  0.19724729  0.00036668     0.46800
H702        H  0.87506118  0.09663526  0.86067949     0.42100
H703        H  0.95478231  0.08849967  0.06339372     0.45600
H704        H  0.80578905  0.09289121  0.94057990     0.37100
C705        C  0.17290153  0.12516100  0.95796582    -0.27200
C706        C  0.14092045  0.12870886  0.95939485     0.02400
C707        C  0.12894382  0.15309553  0.96106997     0.30500
C708        C  0.14893129  0.17364240  0.96239251    -0.19000
C709        C  0.18115002  0.17032559  0.96202383    -0.28400
C710        C  0.19304782  0.14568204  0.95958739     0.44500
C711        C  0.12011666  0.10686964  0.96195726     0.05700
O712        O  0.09766919  0.15700395  0.96188658    -0.56900
H713        H  0.13904409  0.19223613  0.96394049     0.18700
O714        O  0.22422645  0.14132299  0.95862201    -0.63600
H715        H  0.18227291  0.10637163  0.95681463     0.17100
C716        C  0.11668268  0.09085291  0.91669611     0.29400
C717        C  0.09612689  0.07061624  0.91998831    -0.24500
C718        C  0.07918610  0.06613321  0.96833081    -0.19800
C719        C  0.08300183  0.08191657  0.01379218     0.40800
C720        C  0.10328034  0.10223247  0.01033064    -0.26200
O721        O  0.13229542  0.09549590  0.86849566    -0.58100
H722        H  0.09302731  0.05862281  0.88467234     0.16400
O723        O  0.06659519  0.07781566  0.06137451    -0.59600
H724        H  0.10591047  0.11443507  0.04542803     0.14900
H725        H  0.23009112  0.13839262  0.99763780     0.46800
H726        H  0.15119902  0.08511434  0.87086024     0.42100
H727        H  0.07904923  0.06564897  0.08298239     0.45600
H728        H  0.09130651  0.15720406  0.92265038     0.37100
C729        C  0.10321089  0.89691647  0.02029593    -0.27200
C730        C  0.12400661  0.89406903  0.97660707     0.02400
C731        C  0.12507692  0.91216142  0.93415129     0.30500
C732        C  0.10483940  0.93255361  0.93490097    -0.19000
C733        C  0.08351951  0.93512980  0.97793389    -0.28400
C734        C  0.08294653  0.91728734  0.02107012     0.44500
C735        C  0.14390807  0.87175260  0.97457897     0.05700
O736        O  0.14507867  0.90953076  0.89082284    -0.56900
H737        H  0.10519482  0.94602483  0.90122886     0.18700
O738        O  0.06263057  0.91969608  0.06405577    -0.63600
H739        H  0.10237987  0.88311114  0.05329659     0.17100
C740        C  0.17381615  0.87221346  0.99671554     0.29400
C741        C  0.19257609  0.85096846  0.99337677    -0.24500
C742        C  0.18183290  0.82900234  0.96807850    -0.23800
C743        C  0.15175350  0.82871367  0.94570362     0.40800
C744        C  0.13309553  0.85003906  0.94898617    -0.26200
O745        O  0.18468749  0.89323447  0.02237728    -0.58100
H746        H  0.21546573  0.85160466  0.01125826     0.16400
O747        O  0.14083463  0.80809507  0.91855987    -0.59600
H748        H  0.11016608  0.84970098  0.93119135     0.14900
H749        H  0.04454992  0.90924262  0.05414273     0.46800
H750        H  0.19602875  0.90274079  0.99344201     0.42100
H751        H  0.12714885  0.79936381  0.94533500     0.45600
H752        H  0.16422025  0.91827049  0.90224217     0.37100
C753        C  0.90719359  0.89094621  0.00730376    -0.27200
C754        C  0.88216111  0.89299734  0.97109922     0.02400
C755        C  0.87836292  0.91481721  0.93905217     0.30500
C756        C  0.89988743  0.93424544  0.94281724    -0.19000
C757        C  0.92504322  0.93226879  0.97900074    -0.28400
C758        C  0.92842728  0.91053519  0.01186460     0.44500
C759        C  0.86021013  0.87211824  0.96682589     0.05700
O760        O  0.85379407  0.91720802  0.90381868    -0.56900
H761        H  0.89713581  0.95081643  0.91716516     0.18700
O762        O  0.95268081  0.90813609  0.04781468    -0.63600
H763        H  0.91013341  0.87415597  0.03219097     0.17100
C764        C  0.86827525  0.85025257  0.93861522     0.29400
C765        C  0.84753289  0.83019749  0.93654482    -0.24500
C766        C  0.81850474  0.83178886  0.96204346    -0.23800
C767        C  0.81052109  0.85387685  0.99024066     0.40800
C768        C  0.83130254  0.87389939  0.99211355    -0.26200
O769        O  0.89646806  0.84829549  0.91332532    -0.58100
H770        H  0.85411084  0.81342081  0.91475793     0.16400
O771        O  0.78287616  0.85586733  0.01741456    -0.59600
H772        H  0.82511701  0.89068367  0.01426183     0.14900
H773        H  0.94648736  0.91761153  0.08093612     0.46800
H774        H  0.89353152  0.85568088  0.87605235     0.42100
H775        H  0.78664857  0.84871382  0.05466706     0.45600
H776        H  0.86097642  0.91012665  0.86846677     0.37100
C777        C  0.65598221  0.36373740  0.92430067    -0.27200
C778        C  0.63842974  0.36835168  0.97160535     0.02400
C779        C  0.63845122  0.35074795  0.01506981     0.30500
C780        C  0.65657239  0.32916563  0.01142916    -0.19000
C781        C  0.67484627  0.32471823  0.96466273    -0.28400
C782        C  0.67421117  0.34221471  0.92061628     0.44500
C783        C  0.61962983  0.39134675  0.97453919     0.05700
O784        O  0.61982759  0.35401166  0.06016818    -0.56900
H785        H  0.65616544  0.31580460  0.04531431     0.18700
O786        O  0.69160127  0.33872181  0.87410909    -0.63600
H787        H  0.65590579  0.37710279  0.89040087     0.17100
C788        C  0.62454418  0.40916041  0.01612463     0.29400
C789        C  0.60548067  0.43022424  0.01934508    -0.24500
C790        C  0.58166597  0.43384560  0.98105370    -0.23800
C791        C  0.57750296  0.41651177  0.93836966     0.40800
C792        C  0.59641543  0.39543483  0.93532637    -0.26200
O793        O  0.64763984  0.40597329  0.05412772    -0.58100
H794        H  0.60876899  0.44343909  0.05242045     0.16400
O795        O  0.55411707  0.41954135  0.90085494    -0.59600
H796        H  0.59249495  0.38191923  0.90305424     0.14900
H797        H  0.71087582  0.34835708  0.88025785     0.46800
H798        H  0.66650510  0.41268176  0.03606998     0.42100
H799        H  0.56323587  0.42963867  0.87042225     0.45600
H800        H  0.63397968  0.35820046  0.09082914     0.37100
C801        C  0.39325436  0.39940451  0.03846782    -0.27200
C802        C  0.38266460  0.39234186  0.98613418     0.02400
C803        C  0.39256081  0.40597032  0.93936231     0.30500
C804        C  0.41348696  0.42577129  0.94514213    -0.19000
C805        C  0.42448189  0.43250682  0.99722145    -0.28400
C806        C  0.41385883  0.41947262  0.04423990     0.44500
C807        C  0.36118408  0.37083765  0.98079874     0.05700
O808        O  0.38081897  0.40072851  0.88824520    -0.56900
H809        H  0.42112484  0.43601308  0.90883134     0.18700
O810        O  0.42410766  0.42579288  0.09571328    -0.63600
H811        H  0.38573714  0.38915897  0.07484378     0.17100
C812        C  0.36827643  0.35049191  0.94647152     0.29400
C813        C  0.34748716  0.33054626  0.94148840    -0.24500
C814        C  0.32004528  0.33004979  0.97205249    -0.23800
C815        C  0.31298579  0.35025366  0.00668696     0.40800
C816        C  0.33347903  0.37047721  0.01080497    -0.26200
O817        O  0.39589662  0.34955317  0.91896115    -0.58100
H818        H  0.35341008  0.31493139  0.91536972     0.16400
O819        O  0.28605539  0.35044026  0.03642018    -0.59600
H820        H  0.32768268  0.38597788  0.03732925     0.14900
H821        H  0.41135451  0.44032147  0.10660832     0.46800
H822        H  0.41009933  0.34049581  0.94418753     0.42100
H823        H  0.27112379  0.35977044  0.01309722     0.45600
H824        H  0.39841351  0.39418143  0.86661407     0.37100
C825        C  0.39957344  0.59949561  0.93967932    -0.27200
C826        C  0.37977553  0.60354097  0.98451600     0.02400
C827        C  0.38066299  0.58688043  0.02997357     0.30500
C828        C  0.40187112  0.56707276  0.03070910    -0.19000
C829        C  0.42227341  0.56365418  0.98657976    -0.28400
C830        C  0.42075999  0.57979708  0.94057346     0.44500
C831        C  0.35878498  0.62546820  0.98307510     0.05700
O832        O  0.36017371  0.58932001  0.07273057    -0.56900
H833        H  0.40267597  0.55451913  0.06602881     0.18700
O834        O  0.43980412  0.57628300  0.89616968    -0.63600
H835        H  0.39904827  0.61200022  0.90426017     0.17100
C836        C  0.35920045  0.64345489  0.02516679     0.29400
C837        C  0.34020274  0.66457019  0.02146789    -0.24500
C838        C  0.32110131  0.66855486  0.97541396    -0.23800
C839        C  0.32089743  0.65063052  0.93312533     0.40800
C840        C  0.33958924  0.62934669  0.93721960    -0.26200
O841        O  0.37870149  0.64098405  0.06936585    -0.58100
H842        H  0.34097432  0.67818948  0.05423295     0.16400
O843        O  0.30235224  0.65355857  0.88777343    -0.59600
H844        H  0.33911092  0.61576971  0.90435133     0.14900
H845        H  0.45692854  0.58844005  0.90084252     0.46800
H846        H  0.39897741  0.64729772  0.05619136     0.42100
H847        H  0.28199825  0.64663980  0.89895282     0.45600
H848        H  0.37286672  0.59332609  0.10549221     0.37100
C849        C  0.61519436  0.59520707  0.93848369    -0.27200
C850        C  0.62238925  0.60675815  0.98867503     0.02400
C851        C  0.61023181  0.59667143  0.03803911     0.30500
C852        C  0.59079378  0.57568967  0.03640460    -0.19000
C853        C  0.58258545  0.56494348  0.98600266    -0.28400
C854        C  0.59512796  0.57467470  0.93685797     0.44500
C855        C  0.64055393  0.63035892  0.98799519     0.05700
O856        O  0.61506256  0.60842235  0.08732727    -0.56900
H857        H  0.58081595  0.56851476  0.07436405     0.18700
O858        O  0.58740606  0.56453239  0.88704065    -0.63600
H859        H  0.62446519  0.60262655  0.90017832     0.17100
C860        C  0.66657151  0.63371765  0.02202739     0.29400
C861        C  0.68303050  0.65629173  0.01996959    -0.24500
C862        C  0.67461242  0.67539967  0.98284678    -0.23800
C863        C  0.64870634  0.67205779  0.94876778     0.40800
C864        C  0.63183733  0.64975879  0.95172752    -0.26200
O865        O  0.67670725  0.61483913  0.05613545    -0.58100
H866        H  0.70315349  0.65849168  0.04598798     0.16400
O867        O  0.63958462  0.69049004  0.91256104    -0.59600
H868        H  0.61177990  0.64760727  0.92554117     0.14900
H869        H  0.56955064  0.57448128  0.87376605     0.46800
H870        H  0.69112155  0.60489000  0.03343854     0.42100
H871        H  0.62730969  0.70232138  0.93487500     0.45600
H872        H  0.62715886  0.59645069  0.11011418     0.37100
loop_ 
_geom_bond_atom_site_label_1 
_geom_bond_atom_site_label_2 
_geom_bond_distance 
_geom_bond_site_symmetry_2 
_ccdc_geom_bond_type 
N1            C6   1.351   1_556  A
N1            C5   1.353   1_556  A
N1           H33   1.037       .  S
N2            C9   1.352       .  A
N2           C10   1.350       .  A
N3            C8   1.355       .  A
N3            C7   1.353       .  A
N3           H34   1.037       .  S
N4           C11   1.350       .  A
N4           C12   1.350       .  A
C5           C13   1.388       .  A
C5           C21   1.414       .  A
C6           C22   1.413   1_554  A
C6           C14   1.387       .  A
C7           C15   1.386   1_556  A
C7           C24   1.415       .  A
C8           C23   1.419       .  A
C8           C16   1.389   1_556  A
C9           C21   1.413   1_556  A
C9           C17   1.386       .  A
C10          C24   1.412       .  A
C10          C18   1.386       .  A
C11          C19   1.386       .  A
C11          C22   1.412       .  A
C12          C20   1.387       .  A
C12          C23   1.412       .  A
C13          C14   1.373       .  A
C13          H25   1.081       .  S
C14          H26   1.083       .  S
C15          C16   1.373       .  A
C15          H27   1.082       .  S
C16          H28   1.081       .  S
C17          C18   1.372       .  A
C17          H29   1.082       .  S
C18          H30   1.082       .  S
C19          C20   1.375       .  A
C19          H31   1.082       .  S
C20          H32   1.082       .  S
C21         C805   1.485   1_554  S
C22         C790   1.483       .  S
C23         C853   1.485       .  S
C24         C829   1.485       .  S
N35          C40   1.351   1_455  A
N35          C39   1.351       .  A
N35          H67   1.041   1_556  S
N36          C43   1.350   1_545  A
N36          C44   1.348       .  A
N37          C42   1.353   1_455  A
N37          C41   1.351       .  A
N37          H68   1.040   1_556  S
N38          C45   1.348       .  A
N38          C46   1.349   1_565  A
C39          C47   1.385       .  A
C39          C55   1.409       .  A
C40          C56   1.413       .  A
C40          C48   1.388       .  A
C41          C49   1.387       .  A
C41          C58   1.412       .  A
C42          C57   1.413       .  A
C42          C50   1.387       .  A
C43          C55   1.408       .  A
C43          C51   1.385       .  A
C44          C58   1.409       .  A
C44          C52   1.387       .  A
C45          C53   1.387   1_556  A
C45          C56   1.410       .  A
C46          C54   1.385   1_556  A
C46          C57   1.408       .  A
C47          C48   1.374   1_455  A
C47          H59   1.082       .  S
C48          H60   1.082       .  S
C49          C50   1.374   1_455  A
C49          H61   1.082       .  S
C50          H62   1.082       .  S
C51          C52   1.376   1_565  A
C51          H63   1.082   1_556  S
C52          H64   1.082       .  S
C53          C54   1.375   1_565  A
C53          H65   1.082       .  S
C54          H66   1.082       .  S
C55         C733   1.483       .  S
C56         C757   1.483       .  S
C57         C694   1.483       .  S
C58         C718   1.478       .  S
O69          C85   1.274       .  A
O69         Zn75   2.014   1_554  S
C70         C646   1.487       .  S
C70          O86   1.273       .  A
C70          O83   1.276       .  A
O71          C84   1.273       .  A
O71         Cd78   2.060       .  S
O72          C90   1.277       .  A
O72         Cd81   2.087       .  S
O73          C87   1.275   1_554  A
O73         Cd77   2.066       .  S
O74          C85   1.275       .  A
O74         Cd77   2.075       .  S
Zn75         O86   2.011       .  S
Zn75         O88   2.015       .  S
Zn75         O80   1.941       .  S
O76          C87   1.277       .  A
O76         Cd81   2.078       .  S
Cd77         O79   2.090       .  S
Cd77         O80   2.005   1_554  S
Cd78         O82   2.065   1_556  S
Cd78         O91   2.067       .  S
Cd78         O80   1.997       .  S
O79          C89   1.278       .  A
O80         Cd81   2.007       .  S
Cd81         O83   2.083       .  S
O82          C89   1.274       .  A
C84         C709   1.485       .  S
C84          O88   1.275       .  A
C85         C661   1.484       .  S
C87         C814   1.472       .  S
C89         C613   1.493       .  S
C90         C589   1.488       .  S
C90          O91   1.274       .  A
O92         C108   1.275       .  A
O92         Zn98   2.014       .  S
C93         C541   1.487       .  S
C93         O109   1.274       .  A
C93         O106   1.275       .  A
O94         C107   1.275       .  A
O94        Cd101   2.070       .  S
O95         C113   1.275       .  A
O95        Cd104   2.063       .  S
O96         C110   1.274       .  A
O96        Cd100   2.068       .  S
O97         C108   1.273       .  A
O97        Cd100   2.063       .  S
Zn98        O109   2.014   1_556  S
Zn98        O111   2.027       .  S
Zn98        O103   1.938       .  S
O99         C110   1.275   1_554  A
O99        Cd104   2.069       .  S
Cd100       O102   2.065       .  S
Cd100       O103   2.001       .  S
Cd101       O105   2.063       .  S
Cd101       O114   2.074   1_556  S
Cd101       O103   2.001       .  S
O102        C112   1.275       .  A
O103       Cd104   1.994   1_556  S
Cd104       O106   2.074       .  S
O105        C112   1.275       .  A
C107        C685   1.491       .  S
C107        O111   1.275       .  A
C108        C565   1.485       .  S
C110        C781   1.483       .  S
C112        C517   1.484       .  S
C113        C502   1.488       .  S
C113        O114   1.274       .  A
O115        C131   1.273       .  A
O115       Zn121   2.017   1_554  S
C116        C445   1.481       .  S
C116        O132   1.274       .  A
C116        O129   1.274       .  A
O117        C130   1.272       .  A
O117       Cd124   2.049       .  S
O118        C136   1.274       .  A
O118       Cd127   2.059       .  S
O119        C133   1.273   1_554  A
O119       Cd123   2.060       .  S
O120        C131   1.271       .  A
O120       Cd123   2.044       .  S
Zn121       O132   1.999       .  S
Zn121       O134   2.016       .  S
Zn121       O126   1.933       .  S
O122        C133   1.274       .  A
O122       Cd127   2.063       .  S
Cd123       O125   2.058       .  S
Cd123       O126   1.988   1_554  S
Cd124       O128   2.055   1_556  S
Cd124       O137   2.064       .  S
Cd124       O126   1.992       .  S
O125        C135   1.273       .  A
O126       Cd127   1.995       .  S
Cd127       O129   2.071       .  S
O128        C135   1.273       .  A
C130        C766   1.475       .  S
C130        O134   1.274       .  A
C131        C469   1.476       .  S
C133        C862   1.472       .  S
C135        C421   1.479       .  S
C136        C406   1.481       .  S
C136        O137   1.274       .  A
O138        C154   1.273       .  A
O138       Zn144   2.011       .  S
C139        C358   1.486       .  S
C139        O155   1.273       .  A
C139        O152   1.274       .  A
O140        C153   1.275       .  A
O140       Cd147   2.069       .  S
O141        C159   1.273       .  A
O141       Cd150   2.058       .  S
O142        C156   1.277       .  A
O142       Cd146   2.082       .  S
O143        C154   1.275       .  A
O143       Cd146   2.072       .  S
Zn144       O155   2.009   1_556  S
Zn144       O157   2.023       .  S
Zn144       O149   1.941       .  S
O145        C156   1.274   1_554  A
O145       Cd150   2.063       .  S
Cd146       O148   2.074       .  S
Cd146       O149   2.001       .  S
Cd147       O151   2.069       .  S
Cd147       O160   2.063   1_556  S
Cd147       O149   1.999       .  S
O148        C158   1.276       .  A
O149       Cd150   1.997   1_556  S
Cd150       O152   2.066       .  S
O151        C158   1.275       .  A
C153        C742   1.483       .  S
C153        O157   1.275       .  A
C154        C373   1.473       .  S
C156        C838   1.483       .  S
C158        C334   1.483       .  S
C159        C301   1.483       .  S
C159        O160   1.274       .  A
N161        C166   1.352   1_655  A
N161        C165   1.350       .  A
N161        H193   1.036       .  S
N162        C169   1.350       .  A
N162        C170   1.352       .  A
N163        C168   1.351   1_655  A
N163        C167   1.353       .  A
N163        H194   1.036       .  S
N164        C171   1.353       .  A
N164        C172   1.351       .  A
C165        C173   1.387       .  A
C165        C181   1.410       .  A
C166        C182   1.412       .  A
C166        C174   1.386       .  A
C167        C175   1.386       .  A
C167        C184   1.414       .  A
C168        C183   1.414       .  A
C168        C176   1.387       .  A
C169        C181   1.410       .  A
C169        C177   1.386       .  A
C170        C184   1.413       .  A
C170        C178   1.386       .  A
C171        C179   1.385       .  A
C171        C182   1.413       .  A
C172        C180   1.387       .  A
C172        C183   1.414       .  A
C173        C174   1.375   1_655  A
C173        H185   1.082       .  S
C174        H186   1.082       .  S
C175        C176   1.377   1_655  A
C175        H187   1.083       .  S
C176        H188   1.082       .  S
C177        C178   1.373       .  A
C177        H189   1.082       .  S
C178        H190   1.082       .  S
C179        C180   1.374       .  A
C179        H191   1.082       .  S
C180        H192   1.082       .  S
C181        C574   1.475       .  S
C182        C637   1.488       .  S
C183        C670   1.484       .  S
C184        C550   1.490       .  S
N195        C200   1.351       .  A
N195        C199   1.350   1_655  A
N195        H227   1.035       .  S
N196        C203   1.353       .  A
N196        C204   1.352       .  A
N197        C202   1.354       .  A
N197        C201   1.353   1_655  A
N197        H228   1.030       .  S
N198        C205   1.351       .  A
N198        C206   1.350       .  A
C199        C207   1.387       .  A
C199        C215   1.410       .  A
C200        C216   1.410       .  A
C200        C208   1.387       .  A
C201        C209   1.388       .  A
C201        C218   1.417       .  A
C202        C217   1.418       .  A
C202        C210   1.387       .  A
C203        C215   1.413       .  A
C203        C211   1.385       .  A
C204        C218   1.418       .  A
C204        C212   1.388       .  A
C205        C213   1.385       .  A
C205        C216   1.410       .  A
C206        C214   1.388       .  A
C206        C217   1.413       .  A
C207        C208   1.374   1_455  A
C207        H219   1.083       .  S
C208        H220   1.083       .  S
C209        C210   1.375   1_455  A
C209        H221   1.081       .  S
C210        H222   1.082       .  S
C211        C212   1.372       .  A
C211        H223   1.082       .  S
C212        H224   1.082       .  S
C213        C214   1.371       .  A
C213        H225   1.082       .  S
C214        H226   1.082       .  S
C215        C349   1.483       .  S
C216        C478   1.479       .  S
C217        C454   1.483       .  S
C218        C382   1.484       .  S
N229        C234   1.348       .  A
N229        C233   1.352       .  A
N229        H261   1.036       .  S
N230        C237   1.351       .  A
N230        C238   1.349       .  A
N231        C236   1.351       .  A
N231        C235   1.350       .  A
N231        H262   1.036       .  S
N232        C239   1.351       .  A
N232        C240   1.352       .  A
C233        C241   1.386       .  A
C233        C249   1.411       .  A
C234        C250   1.410       .  A
C234        C242   1.387       .  A
C235        C243   1.387       .  A
C235        C252   1.412       .  A
C236        C251   1.412       .  A
C236        C244   1.386       .  A
C237        C249   1.410       .  A
C237        C245   1.385       .  A
C238        C252   1.410       .  A
C238        C246   1.387       .  A
C239        C247   1.386       .  A
C239        C250   1.412       .  A
C240        C248   1.386       .  A
C240        C251   1.412       .  A
C241        C242   1.375       .  A
C241        H253   1.082       .  S
C242        H254   1.083       .  S
C243        C244   1.376       .  A
C243        H255   1.082       .  S
C244        H256   1.083       .  S
C245        C246   1.371       .  A
C245        H257   1.082       .  S
C246        H258   1.082       .  S
C247        C248   1.370       .  A
C247        H259   1.082       .  S
C248        H260   1.082       .  S
C249        C325   1.482       .  S
C250        C397   1.478       .  S
C251        C430   1.482       .  S
C252        C310   1.475       .  S
N263        C268   1.352       .  A
N263        C267   1.349       .  A
N263        H295   1.037       .  S
N264        C271   1.350       .  A
N264        C272   1.353       .  A
N265        C270   1.350       .  A
N265        C269   1.351       .  A
N265        H296   1.037       .  S
N266        C273   1.352       .  A
N266        C274   1.350       .  A
C267        C275   1.387       .  A
C267        C283   1.411       .  A
C268        C284   1.411       .  A
C268        C276   1.386       .  A
C269        C277   1.386       .  A
C269        C286   1.411       .  A
C270        C285   1.412       .  A
C270        C278   1.387       .  A
C271        C283   1.413       .  A
C271        C279   1.388       .  A
C272        C286   1.412       .  A
C272        C280   1.385       .  A
C273        C281   1.385       .  A
C273        C284   1.412       .  A
C274        C282   1.387       .  A
C274        C285   1.414       .  A
C275        C276   1.376       .  A
C275        H287   1.083       .  S
C276        H288   1.082       .  S
C277        C278   1.377       .  A
C277        H289   1.083       .  S
C278        H290   1.082       .  S
C279        C280   1.373       .  A
C279        H291   1.082       .  S
C280        H292   1.082       .  S
C281        C282   1.373       .  A
C281        H293   1.082       .  S
C282        H294   1.082       .  S
C283        C526   1.478       .  S
C284        C598   1.486       .  S
C285        C622   1.482       .  S
C286        C493   1.486       .  S
C297        C298   1.402       .  A
C297        C302   1.397       .  A
C297        H307   1.084       .  S
C298        C299   1.406       .  A
C298        C303   1.476       .  S
C299        C300   1.399       .  A
C299        O304   1.373       .  S
C300        C301   1.407       .  A
C300        H305   1.083       .  S
C301        C302   1.414       .  A
C302        O306   1.372       .  S
C303        C308   1.409       .  A
C303        C312   1.403       .  A
O304        H320   0.992       .  S
O306        H317   0.992       .  S
C308        C309   1.400       .  A
C308        O313   1.372       .  S
C309        C310   1.399       .  A
C309        H314   1.083       .  S
C310        C311   1.404       .  A
C311        C312   1.395       .  A
C311        O315   1.372       .  S
C312        H316   1.084       .  S
O313        H318   0.992       .  S
O315        H319   0.992       .  S
C321        C322   1.401       .  A
C321        C326   1.396       .  A
C321        H331   1.084       .  S
C322        C323   1.409       .  A
C322        C327   1.477       .  S
C323        C324   1.402       .  A
C323        O328   1.371       .  S
C324        C325   1.402       .  A
C324        H329   1.083       .  S
C325        C326   1.406       .  A
C326        O330   1.372       .  S
C327        C332   1.406       .  A
C327        C336   1.401       .  A
O328        H344   0.992       .  S
O330        H341   0.992       .  S
C332        C333   1.399       .  A
C332        O337   1.372       .  S
C333        C334   1.406       .  A
C333        H338   1.083       .  S
C334        C335   1.413       .  A
C335        C336   1.401       .  A
C335        O339   1.372       .  S
C336        H340   1.084       .  S
O337        H342   0.992       .  S
O339        H343   0.992       .  S
C345        C346   1.407       .  A
C345        C350   1.403       .  A
C345        H355   1.083       .  S
C346        C347   1.410       .  A
C346        C351   1.484       .  S
C347        C348   1.395       .  A
C347        O352   1.372       .  S
C348        C349   1.401       .  A
C348        H353   1.084       .  S
C349        C350   1.405       .  A
C350        O354   1.371       .  S
C351        C356   1.407       .  A
C351        C360   1.403       .  A
O352        H368   0.992       .  S
O354        H365   0.992       .  S
C356        C357   1.400       .  A
C356        O361   1.372       .  S
C357        C358   1.407       .  A
C357        H362   1.083       .  S
C358        C359   1.414       .  A
C359        C360   1.398       .  A
C359        O363   1.372       .  S
C360        H364   1.084       .  S
O361        H366   0.992       .  S
O363        H367   0.992       .  S
C369        C370   1.404       .  A
C369        C374   1.398       .  A
C369        H379   1.084       .  S
C370        C371   1.408       .  A
C370        C375   1.481       .  S
C371        C372   1.401       .  A
C371        O376   1.372       .  S
C372        C373   1.404       .  A
C372        H377   1.084       .  S
C373        C374   1.407       .  A
C374        O378   1.372       .  S
C375        C380   1.408       .  A
C375        C384   1.406       .  A
O376        H392   0.992       .  S
O378        H389   0.992       .  S
C380        C381   1.395       .  A
C380        O385   1.372       .  S
C381        C382   1.401       .  A
C381        H386   1.084       .  S
C382        C383   1.407       .  A
C383        C384   1.404       .  A
C383        O387   1.372       .  S
C384        H388   1.083       .  S
O385        H390   0.992       .  S
O387        H391   0.992       .  S
C393        C394   1.401       .  A
C393        C398   1.391       .  A
C393        H403   1.084       .  S
C394        C395   1.409       .  A
C394        C399   1.474       .  S
C395        C396   1.402       .  A
C395        O400   1.372       .  S
C396        C397   1.402       .  A
C396        H401   1.083       .  S
C397        C398   1.406       .  A
C398        O402   1.373       .  S
C399        C404   1.406       .  A
C399        C408   1.400       .  A
O400        H416   0.992       .  S
O402        H413   0.992       .  S
C404        C405   1.399       .  A
C404        O409   1.372       .  S
C405        C406   1.408       .  A
C405        H410   1.083       .  S
C406        C407   1.413       .  A
C407        C408   1.394       .  A
C407        O411   1.372       .  S
C408        H412   1.084       .  S
O409        H414   0.992       .  S
O411        H415   0.992       .  S
C417        C418   1.401       .  A
C417        C422   1.396       .  A
C417        H427   1.084       .  S
C418        C419   1.403       .  A
C418        C423   1.472       .  S
C419        C420   1.397       .  A
C419        O424   1.371       .  S
C420        C421   1.407       .  A
C420        H425   1.083       .  S
C421        C422   1.413       .  A
C422        O426   1.372       .  S
C423        C428   1.405       .  A
C423        C432   1.404       .  A
O424        H440   0.992       .  S
O426        H437   0.992       .  S
C428        C429   1.393       .  A
C428        O433   1.372       .  S
C429        C430   1.401       .  A
C429        H434   1.084       .  S
C430        C431   1.408       .  A
C431        C432   1.402       .  A
C431        O435   1.372       .  S
C432        H436   1.083       .  S
O433        H438   0.992       .  S
O435        H439   0.991       .  S
C441        C442   1.404       .  A
C441        C446   1.404       .  A
C441        H451   1.084       .  S
C442        C443   1.405       .  A
C442        C447   1.477       .  S
C443        C444   1.391       .  A
C443        O448   1.372       .  S
C444        C445   1.405       .  A
C444        H449   1.083       .  S
C445        C446   1.413       .  A
C446        O450   1.372       .  S
C447        C452   1.408       .  A
C447        C456   1.403       .  A
O448        H464   0.992       .  S
O450        H461   0.992       .  S
C452        C453   1.401       .  A
C452        O457   1.371       .  S
C453        C454   1.404       .  A
C453        H458   1.083       .  S
C454        C455   1.405       .  A
C455        C456   1.394       .  A
C455        O459   1.372       .  S
C456        H460   1.084       .  S
O457        H462   0.992       .  S
O459        H463   0.992       .  S
C465        C466   1.398       .  A
C465        C470   1.396       .  A
C465        H475   1.084       .  S
C466        C467   1.405       .  A
C466        C471   1.470       .  S
C467        C468   1.400       .  A
C467        O472   1.372       .  S
C468        C469   1.406       .  A
C468        H473   1.084       .  S
C469        C470   1.412       .  A
C470        O474   1.372       .  S
C471        C476   1.405       .  A
C471        C480   1.403       .  A
O472        H488   0.992       .  S
O474        H485   0.992       .  S
C476        C477   1.397       .  A
C476        O481   1.372       .  S
C477        C478   1.402       .  A
C477        H482   1.084       .  S
C478        C479   1.405       .  A
C479        C480   1.398       .  A
C479        O483   1.371       .  S
C480        H484   1.084       .  S
O481        H486   0.992       .  S
O483        H487   0.992       .  S
C489        C490   1.407       .  A
C489        C494   1.405       .  A
C489        H499   1.083       .  S
C490        C491   1.409       .  A
C490        C495   1.485       .  S
C491        C492   1.397       .  A
C491        O496   1.373       .  S
C492        C493   1.401       .  A
C492        H497   1.084       .  S
C493        C494   1.407       .  A
C494        O498   1.371       .  S
C495        C500   1.407       .  A
C495        C504   1.404       .  A
O496        H512   0.992       .  S
O498        H509   0.991       .  S
C500        C501   1.398       .  A
C500        O505   1.374       .  S
C501        C502   1.406       .  A
C501        H506   1.083       .  S
C502        C503   1.415       .  A
C503        C504   1.404       .  A
C503        O507   1.372       .  S
C504        H508   1.084       .  S
O505        H510   0.992       .  S
O507        H511   0.992       .  S
C513        C514   1.402       .  A
C513        C518   1.397       .  A
C513        H523   1.084       .  S
C514        C515   1.405       .  A
C514        C519   1.477       .  S
C515        C516   1.397       .  A
C515        O520   1.372       .  S
C516        C517   1.408       .  A
C516        H521   1.083       .  S
C517        C518   1.414       .  A
C518        O522   1.372       .  S
C519        C524   1.408       .  A
C519        C528   1.406       .  A
O520        H536   0.992       .  S
O522        H533   0.992       .  S
C524        C525   1.393       .  A
C524        O529   1.372       .  S
C525        C526   1.401       .  A
C525        H530   1.084       .  S
C526        C527   1.405       .  A
C527        C528   1.399       .  A
C527        O531   1.371       .  S
C528        H532   1.083       .  S
O529        H534   0.992       .  S
O531        H535   0.992       .  S
C537        C538   1.404       .  A
C537        C542   1.398       .  A
C537        H547   1.083       .  S
C538        C539   1.410       .  A
C538        C543   1.489       .  S
C539        C540   1.402       .  A
C539        O544   1.372       .  S
C540        C541   1.407       .  A
C540        H545   1.083       .  S
C541        C542   1.413       .  A
C542        O546   1.372       .  S
C543        C548   1.411       .  A
C543        C552   1.407       .  A
O544        H560   0.992       .  S
O546        H557   0.992       .  S
C548        C549   1.398       .  A
C548        O553   1.372       .  S
C549        C550   1.401       .  A
C549        H554   1.084       .  S
C550        C551   1.409       .  A
C551        C552   1.404       .  A
C551        O555   1.371       .  S
C552        H556   1.083       .  S
O553        H558   0.992       .  S
O555        H559   0.991       .  S
C561        C562   1.399       .  A
C561        C566   1.399       .  A
C561        H571   1.084       .  S
C562        C563   1.405       .  A
C562        C567   1.473       .  S
C563        C564   1.398       .  A
C563        O568   1.373       .  S
C564        C565   1.408       .  A
C564        H569   1.083       .  S
C565        C566   1.415       .  A
C566        O570   1.371       .  S
C567        C572   1.407       .  A
C567        C576   1.404       .  A
O568        H584   0.992       .  S
O570        H581   0.992       .  S
C572        C573   1.393       .  A
C572        O577   1.372       .  S
C573        C574   1.399       .  A
C573        H578   1.084       .  S
C574        C575   1.405       .  A
C575        C576   1.401       .  A
C575        O579   1.371       .  S
C576        H580   1.083       .  S
O577        H582   0.992       .  S
O579        H583   0.992       .  S
C585        C586   1.405       .  A
C585        C590   1.402       .  A
C585        H595   1.084       .  S
C586        C587   1.409       .  A
C586        C591   1.489       .  S
C587        C588   1.403       .  A
C587        O592   1.373       .  S
C588        C589   1.408       .  A
C588        H593   1.083       .  S
C589        C590   1.411       .  A
C590        O594   1.372       .  S
C591        C596   1.413       .  A
C591        C600   1.404       .  A
O592        H608   0.992       .  S
O594        H605   0.992       .  S
C596        C597   1.404       .  A
C596        O601   1.371       .  S
C597        C598   1.402       .  A
C597        H602   1.083       .  S
C598        C599   1.406       .  A
C599        C600   1.398       .  A
C599        O603   1.372       .  S
C600        H604   1.084       .  S
O601        H606   0.992       .  S
O603        H607   0.992       .  S
C609        C610   1.400       .  A
C609        C614   1.401       .  A
C609        H619   1.084       .  S
C610        C611   1.409       .  A
C610        C615   1.484       .  S
C611        C612   1.400       .  A
C611        O616   1.372       .  S
C612        C613   1.407       .  A
C612        H617   1.083       .  S
C613        C614   1.417       .  A
C614        O618   1.371       .  S
C615        C620   1.412       .  A
C615        C624   1.403       .  A
O616        H632   0.992       .  S
O618        H629   0.992       .  S
C620        C621   1.402       .  A
C620        O625   1.371       .  S
C621        C622   1.401       .  A
C621        H626   1.083       .  S
C622        C623   1.406       .  A
C623        C624   1.396       .  A
C623        O627   1.372       .  S
C624        H628   1.084       .  S
O625        H630   0.992       .  S
O627        H631   0.992       .  S
C633        C634   1.406       .  A
C633        C638   1.403       .  A
C633        H643   1.083       .  S
C634        C635   1.410       .  A
C634        C639   1.487       .  S
C635        C636   1.398       .  A
C635        O640   1.372       .  S
C636        C637   1.403       .  A
C636        H641   1.084       .  S
C637        C638   1.407       .  A
C638        O642   1.371       .  S
C639        C644   1.409       .  A
C639        C648   1.403       .  A
O640        H656   0.992       .  S
O642        H653   0.992       .  S
C644        C645   1.401       .  A
C644        O649   1.372       .  S
C645        C646   1.406       .  A
C645        H650   1.083       .  S
C646        C647   1.414       .  A
C647        C648   1.400       .  A
C647        O651   1.372       .  S
C648        H652   1.084       .  S
O649        H654   0.992       .  S
O651        H655   0.992       .  S
C657        C658   1.401       .  A
C657        C662   1.399       .  A
C657        H667   1.084       .  S
C658        C659   1.407       .  A
C658        C663   1.479       .  S
C659        C660   1.402       .  A
C659        O664   1.372       .  S
C660        C661   1.406       .  A
C660        H665   1.083       .  S
C661        C662   1.413       .  A
C662        O666   1.372       .  S
C663        C668   1.410       .  A
C663        C672   1.402       .  A
O664        H680   0.992       .  S
O666        H677   0.992       .  S
C668        C669   1.402       .  A
C668        O673   1.371       .  S
C669        C670   1.403       .  A
C669        H674   1.083       .  S
C670        C671   1.408       .  A
C671        C672   1.396       .  A
C671        O675   1.372       .  S
C672        H676   1.084       .  S
O673        H678   0.992       .  S
O675        H679   0.992       .  S
C681        C682   1.401       .  A
C681        C686   1.400       .  A
C681        H691   1.084       .  S
C682        C683   1.404       .  A
C682        C687   1.479       .  S
C683        C684   1.401       .  A
C683        O688   1.372       .  S
C684        C685   1.410       .  A
C684        H689   1.083       .  S
C685        C686   1.415       .  A
C686        O690   1.371       .  S
C687        C692   1.409       .  A
C687        C696   1.403   1_556  A
O688        H704   0.991       .  S
O690        H701   0.992   1_556  S
C692        C693   1.401       .  A
C692        O697   1.371       .  S
C693        C694   1.403       .  A
C693        H698   1.084       .  S
C694        C695   1.406   1_556  A
C695        C696   1.399       .  A
C695        O699   1.371       .  S
C696        H700   1.084       .  S
O697        H702   0.992       .  S
O699        H703   0.992       .  S
C705        C706   1.399       .  A
C705        C710   1.400       .  A
C705        H715   1.084       .  S
C706        C707   1.404       .  A
C706        C711   1.472       .  S
C707        C708   1.396       .  A
C707        O712   1.372       .  S
C708        C709   1.408       .  A
C708        H713   1.083       .  S
C709        C710   1.416       .  A
C710        O714   1.372       .  S
C711        C716   1.407       .  A
C711        C720   1.402   1_556  A
O712        H728   0.992       .  S
O714        H725   0.992       .  S
C716        C717   1.400       .  A
C716        O721   1.371       .  S
C717        C718   1.402       .  A
C717        H722   1.083       .  S
C718        C719   1.405   1_556  A
C719        C720   1.396       .  A
C719        O723   1.371       .  S
C720        H724   1.084       .  S
O721        H726   0.992       .  S
O723        H727   0.992       .  S
C729        C730   1.401   1_554  A
C729        C734   1.400       .  A
C729        H739   1.084       .  S
C730        C731   1.406       .  A
C730        C735   1.474       .  S
C731        C732   1.400       .  A
C731        O736   1.371       .  S
C732        C733   1.402       .  A
C732        H737   1.083       .  S
C733        C734   1.409   1_556  A
C734        O738   1.372       .  S
C735        C740   1.403       .  A
C735        C744   1.400       .  A
O736        H752   0.992       .  S
O738        H749   0.992       .  S
C740        C741   1.400       .  A
C740        O745   1.371   1_556  S
C741        C742   1.407       .  A
C741        H746   1.083   1_556  S
C742        C743   1.412       .  A
C743        C744   1.401       .  A
C743        O747   1.372       .  S
C744        H748   1.084       .  S
O745        H750   0.992   1_554  S
O747        H751   0.992       .  S
C753        C754   1.400   1_554  A
C753        C758   1.396       .  A
C753        H763   1.084       .  S
C754        C755   1.404       .  A
C754        C759   1.468       .  S
C755        C756   1.397       .  A
C755        O760   1.371       .  S
C756        C757   1.404       .  A
C756        H761   1.084       .  S
C757        C758   1.409   1_556  A
C758        O762   1.372       .  S
C759        C764   1.404       .  A
C759        C768   1.398       .  A
O760        H776   0.992       .  S
O762        H773   0.992       .  S
C764        C765   1.397       .  A
C764        O769   1.371       .  S
C765        C766   1.405       .  A
C765        H770   1.083       .  S
C766        C767   1.413       .  A
C767        C768   1.397       .  A
C767        O771   1.372   1_556  S
C768        H772   1.084   1_556  S
O769        H774   0.992       .  S
O771        H775   0.992       .  S
C777        C778   1.401       .  A
C777        C782   1.400       .  A
C777        H787   1.084       .  S
C778        C779   1.406   1_556  A
C778        C783   1.477       .  S
C779        C780   1.400       .  A
C779        O784   1.373       .  S
C780        C781   1.406   1_554  A
C780        H785   1.083       .  S
C781        C782   1.413       .  A
C782        O786   1.372       .  S
C783        C788   1.410   1_556  A
C783        C792   1.401       .  A
O784        H800   0.992       .  S
O786        H797   0.992       .  S
C788        C789   1.400       .  A
C788        O793   1.371       .  S
C789        C790   1.402   1_554  A
C789        H794   1.083       .  S
C790        C791   1.408       .  A
C791        C792   1.396       .  A
C791        O795   1.372       .  S
C792        H796   1.084       .  S
O793        H798   0.992       .  S
O795        H799   0.991       .  S
C801        C802   1.406   1_554  A
C801        C806   1.401       .  A
C801        H811   1.084       .  S
C802        C803   1.408       .  A
C802        C807   1.483       .  S
C803        C804   1.399       .  A
C803        O808   1.373       .  S
C804        C805   1.401       .  A
C804        H809   1.084       .  S
C805        C806   1.407   1_556  A
C806        O810   1.372       .  S
C807        C812   1.410       .  A
C807        C816   1.404   1_556  A
O808        H824   0.992       .  S
O810        H821   0.992       .  S
C812        C813   1.399       .  A
C812        O817   1.371       .  S
C813        C814   1.401       .  A
C813        H818   1.084       .  S
C814        C815   1.408   1_556  A
C815        C816   1.400       .  A
C815        O819   1.372       .  S
C816        H820   1.084       .  S
O817        H822   0.992       .  S
O819        H823   0.992       .  S
C825        C826   1.404       .  A
C825        C830   1.398       .  A
C825        H835   1.084       .  S
C826        C827   1.411   1_556  A
C826        C831   1.484       .  S
C827        C828   1.403       .  A
C827        O832   1.373       .  S
C828        C829   1.402   1_554  A
C828        H833   1.084       .  S
C829        C830   1.406       .  A
C830        O834   1.372       .  S
C831        C836   1.409   1_556  A
C831        C840   1.404       .  A
O832        H848   0.992       .  S
O834        H845   0.992       .  S
C836        C837   1.400       .  A
C836        O841   1.372       .  S
C837        C838   1.406   1_554  A
C837        H842   1.084       .  S
C838        C839   1.411       .  A
C839        C840   1.400       .  A
C839        O843   1.371       .  S
C840        H844   1.084       .  S
O841        H846   0.992       .  S
O843        H847   0.992       .  S
C849        C850   1.406       .  A
C849        C854   1.398       .  A
C849        H859   1.084       .  S
C850        C851   1.410   1_556  A
C850        C855   1.484       .  S
C851        C852   1.400       .  A
C851        O856   1.373       .  S
C852        C853   1.402   1_554  A
C852        H857   1.084       .  S
C853        C854   1.405       .  A
C854        O858   1.371       .  S
C855        C860   1.410   1_556  A
C855        C864   1.405       .  A
O856        H872   0.992       .  S
O858        H869   0.992       .  S
C860        C861   1.399       .  A
C860        O865   1.371       .  S
C861        C862   1.403   1_554  A
C861        H866   1.084       .  S
C862        C863   1.407       .  A
C863        C864   1.396       .  A
C863        O867   1.372       .  S
C864        H868   1.084       .  S
O865        H870   0.992       .  S
O867        H871   0.992       .  S
