geometry optimzed in LAMMPS
_audit_creation_date              2020-11-30 
_audit_creation_method            'lammps2cif' 
_symmetry_space_group_name_H-M    'P1' 
_symmetry_Int_Tables_number       1 
_symmetry_cell_setting            triclinic 
loop_ 
_symmetry_equiv_pos_as_xyz 
  x,y,z 
_cell_length_a                    29.70153952 
_cell_length_b                    30.31494162389596 
_cell_length_c                    25.168465856964172 
_cell_angle_alpha                 90.69327053182742 
_cell_angle_beta                  89.48985822838013 
_cell_angle_gamma                 122.25262108102831 
loop_ 
_atom_site_label 
_atom_site_type_symbol 
_atom_site_fract_x 
_atom_site_fract_y 
_atom_site_fract_z 
_atom_site_charge 
C1          C  0.41781197  0.33717920  0.00548207    -0.03200
C2          C  0.99088236  0.37905427  0.50030247    -0.03200
C3          C  0.02419109  0.45193084  0.00175946    -0.03200
C4          C  0.98078740  0.98361362  0.49848145    -0.03200
C5          C  0.40748479  0.43958367  0.99603190    -0.03200
C6          C  0.37801547  0.36826012  0.49911650    -0.03200
O7          O  0.18047443  0.24198699  0.31831635    -0.86100
O8          O  0.09045650  0.14763777  0.29386446    -0.83200
C9          C  0.05474677  0.14346202  0.32444320     0.97400
O10         O  0.03756520  0.17329827  0.31949223    -0.83200
O11         O  0.03971874  0.26242246  0.29814864    -0.85800
C12         C  0.07553374  0.29515562  0.32995024     1.01900
O13         O  0.12355056  0.31516244  0.31770488    -0.78600
O14         O  0.21305403  0.32025971  0.28689706    -0.78800
C15         C  0.21349522  0.29049033  0.32122553     1.01800
O16         O  0.20631577  0.25819987  0.20650524    -0.86100
O17         O  0.10889749  0.16826637  0.18576807    -0.83200
C18         C  0.05900242  0.13816784  0.18216614     0.97400
O19         O  0.02786409  0.14489528  0.21061808    -0.83200
O20         O  0.03860369  0.23861958  0.18183827    -0.85800
C21         C  0.06191399  0.28718046  0.17402575     1.01800
O22         O  0.09655580  0.31847292  0.20709951    -0.78600
O23         O  0.18160009  0.31038581  0.17801893    -0.78800
C24         C  0.21028506  0.29141527  0.17376945     1.01800
Cr25       Cr  0.14434225  0.20700199  0.25101155     1.93700
Cr26       Cr  0.04124065  0.20786272  0.25195192     1.93200
Cr27       Cr  0.15019272  0.31060772  0.24735747     1.39100
O28         O  0.11165285  0.24143577  0.24947870    -1.23900
O29         O  0.29104108  0.14353423  0.18245362    -0.86100
O30         O  0.19221160  0.06128360  0.21300922    -0.83200
C31         C  0.18685851  0.02825117  0.17901691     0.97400
O32         O  0.21510927  0.00871973  0.18168899    -0.83200
O33         O  0.29865153  0.99663539  0.20602983    -0.85800
C34         C  0.33616051  0.02702301  0.17501186     1.01900
O35         O  0.36133437  0.07569902  0.18351662    -0.78600
O36         O  0.37199347  0.16961829  0.20758725    -0.78800
C37         C  0.34056766  0.17085754  0.17464126     1.01800
O38         O  0.31486246  0.17381168  0.29235209    -0.86100
O39         O  0.22219949  0.08308925  0.31977286    -0.83200
C40         C  0.18786134  0.03493105  0.32397522     0.97400
O41         O  0.18749960  0.00223842  0.29193582    -0.83200
O42         O  0.27631642  0.00010618  0.31684211    -0.85800
C43         C  0.32496495  0.01717973  0.32324583     1.01800
O44         O  0.36004583  0.05428950  0.29517873    -0.78600
O45         O  0.36324572  0.14482306  0.32120243    -0.78800
C46         C  0.34678613  0.17547908  0.32622489     1.01800
Cr47       Cr  0.25791398  0.11288448  0.25173349     1.93700
Cr48       Cr  0.24766054  0.00727770  0.24922337     1.93200
Cr49       Cr  0.35881113  0.10872652  0.25209846     1.39100
O50         O  0.28830499  0.07615021  0.25139838    -1.23900
C51         C  0.33614058  0.34457658  0.05246376    -0.06900
C52         C  0.28566048  0.29636209  0.05140379    -0.18000
C53         C  0.24316789  0.28028858  0.08635871     0.10300
C54         C  0.25069985  0.30925197  0.13192160    -0.06800
C55         C  0.30148218  0.35083943  0.14224384    -0.18000
C56         C  0.34364392  0.36655932  0.10566828     0.10300
S57         S  0.18188596  0.21946078  0.07185482    -0.33000
S58         S  0.40225111  0.41894518  0.13189076    -0.33000
H59         H  0.42671530  0.40989597  0.08921534     0.28400
H60         H  0.14813734  0.22907467  0.10194278     0.28300
H61         H  0.27819219  0.26516731  0.02782686     0.18900
H62         H  0.30841754  0.37193202  0.17931413     0.18900
C63         C  0.33541987  0.33997431  0.44568427    -0.06900
C64         C  0.34667505  0.35977482  0.39256314    -0.18000
C65         C  0.30862786  0.34695401  0.35228137     0.10300
C66         C  0.25470775  0.31166925  0.36303062    -0.06800
C67         C  0.24177511  0.28859214  0.41251017    -0.18000
C68         C  0.28262599  0.29208391  0.44313496     0.10300
S69         S  0.33174643  0.37381317  0.28711538    -0.33000
S70         S  0.27252791  0.22788994  0.43666865    -0.33000
H71         H  0.22222123  0.20212447  0.96370404     0.28400
H72         H  0.30028451  0.32594732  0.26027712     0.28300
H73         H  0.38627400  0.38475807  0.37978388     0.18900
H74         H  0.20103521  0.25683674  0.41948314     0.18900
C75         C  0.37535107  0.44933948  0.44466500    -0.06900
C76         C  0.39884805  0.96457563  0.39264780    -0.18000
C77         C  0.38277561  0.98466764  0.35257245     0.10300
C78         C  0.34111294  0.99196700  0.36224740    -0.06800
C79         C  0.31074995  0.47101535  0.40692941    -0.18000
C80         C  0.32243676  0.44371223  0.44380812     0.10300
S81         S  0.42068111  0.00401993  0.29146257    -0.33000
S82         S  0.25815619  0.39442498  0.47070487    -0.33000
H83         H  0.27007804  0.35728780  0.98697654     0.28400
H84         H  0.37620126  0.98479791  0.25810392     0.28300
H85         H  0.43402630  0.96757069  0.38388629     0.18900
H86         H  0.27537692  0.47259880  0.41198759     0.18900
C87         C  0.38410082  0.46596573  0.04003261    -0.06900
C88         C  0.33166485  0.43976773  0.06270149    -0.18000
C89         C  0.31446642  0.45984151  0.10357948     0.10300
C90         C  0.34985236  0.00456085  0.12845073    -0.06800
C91         C  0.39756845  0.03392998  0.09973576    -0.18000
C92         C  0.39859560  0.01664734  0.04735140     0.10300
S93         S  0.24482590  0.42237218  0.12092817    -0.33000
S94         S  0.36741639  0.04189564  0.00547913    -0.33000
H95         H  0.38414041  0.08862548  0.03366598     0.28400
H96         H  0.23927568  0.46529593  0.11549354     0.28300
H97         H  0.30290501  0.40103442  0.05391335     0.18900
H98         H  0.42406904  0.07472466  0.10998994     0.18900
C99         C  0.00242015  0.03098533  0.04453093    -0.06900
C100        C  0.00094931  0.01517297  0.09673572    -0.18000
C101        C  0.01779715  0.04658627  0.14329344     0.10300
C102        C  0.03687169  0.09938355  0.13909477    -0.06800
C103        C  0.03827138  0.11883481  0.09047579    -0.18000
C104        C  0.02270140  0.08855630  0.04395758     0.10300
S105        S  0.51711733  0.02170098  0.20727520    -0.33000
S106        S  0.02990411  0.13575119  0.99498325    -0.33000
H107        H  0.04704863  0.16244763  0.49278491     0.28400
H108        H  0.05800453  0.06446734  0.23120294     0.28300
H109        H  0.49475968  0.98002488  0.10141464     0.18900
H110        H  0.05187496  0.16003586  0.09014274     0.18900
C111        C  0.00339633  0.02758013  0.45064489    -0.06900
C112        C  0.97446116  0.05025438  0.43573996    -0.18000
C113        C  0.98862235  0.08759924  0.39586850     0.10300
C114        C  0.03471743  0.10342988  0.36629444    -0.06800
C115        C  0.06553026  0.08329369  0.38113222    -0.18000
C116        C  0.05732553  0.06193387  0.43199155     0.10300
S117        S  0.44920348  0.11234084  0.38465615    -0.33000
S118        S  0.10948098  0.11043949  0.47471632    -0.33000
H119        H  0.15112788  0.12701908  0.43777351     0.28400
H120        H  0.98578720  0.16376823  0.40297726     0.28300
H121        H  0.44405929  0.03979772  0.45541166     0.18900
H122        H  0.10388837  0.09834724  0.36219972     0.18900
C123        C  0.06905538  0.47418584  0.05193895    -0.06900
C124        C  0.09632770  0.02680169  0.07214381    -0.18000
C125        C  0.13170130  0.04462973  0.11517930     0.10300
C126        C  0.14700470  0.01196889  0.13665794    -0.06800
C127        C  0.12761099  0.46902700  0.11947492    -0.18000
C128        C  0.10289026  0.45479702  0.07006766     0.10300
S129        S  0.15555089  0.10953543  0.13925932    -0.33000
S130        S  0.13710239  0.42944490  0.03372280    -0.33000
H131        H  0.13911236  0.39792407  0.07299413     0.28400
H132        H  0.20833754  0.12462927  0.14500221     0.28300
H133        H  0.09083757  0.05539061  0.05629477     0.18900
H134        H  0.14090863  0.44567092  0.13764329     0.18900
C135        C  0.06839142  0.47606574  0.45312522    -0.06900
C136        C  0.12078449  0.01929859  0.45561898    -0.18000
C137        C  0.16048827  0.03671470  0.41711644     0.10300
C138        C  0.14725439  0.01657635  0.36610281    -0.06800
C139        C  0.09647023  0.48605692  0.35744300    -0.18000
C140        C  0.05668367  0.46763592  0.39706036     0.10300
S141        S  0.22826069  0.08461001  0.43654358    -0.33000
S142        S  0.99311877  0.43944244  0.36982977    -0.33000
H143        H  0.96716741  0.42027747  0.41812557     0.28400
H144        H  0.25091708  0.06013426  0.40941009     0.28300
H145        H  0.13708246  0.04128232  0.49116651     0.18900
H146        H  0.08506171  0.47861755  0.31589986     0.18900
C147        C  0.01641558  0.36427464  0.44444952    -0.06900
C148        C  0.07241220  0.38535926  0.43520554    -0.18000
C149        C  0.09503344  0.36362686  0.40213463     0.10300
C150        C  0.06138355  0.31356657  0.37945759    -0.06800
C151        C  0.00816368  0.28923753  0.39486405    -0.18000
C152        C  0.99143557  0.32428225  0.40321505     0.10300
S153        S  0.16508111  0.40385694  0.38778469    -0.33000
S154        S  0.49163108  0.34607074  0.33418991    -0.33000
H155        H  0.47197550  0.29795241  0.30775902     0.28400
H156        H  0.17383190  0.36324765  0.39605834     0.28300
H157        H  0.10120373  0.42141132  0.44852657     0.18900
H158        H  0.98027375  0.25168337  0.37698399     0.18900
C159        C  0.04580407  0.30910022  0.12975246    -0.06900
C160        C  0.03182286  0.34413184  0.14381466    -0.18000
C161        C  0.01607920  0.36810251  0.10691607     0.11100
C162        C  0.01190061  0.35743571  0.04917097    -0.06800
C163        C  0.02998418  0.32241252  0.03724041    -0.18000
C164        C  0.04667667  0.29958974  0.07520111     0.10300
S165        S  0.00272888  0.41115751  0.14228487    -0.33000
S166        S  0.07153202  0.26065388  0.05082781    -0.33000
H167        H  0.11196369  0.27937252  0.08908432     0.28400
H168        H  0.03874780  0.42630487  0.18479519     0.28300
H169        H  0.03152522  0.35153463  0.18605959     0.18900
H170        H  0.02880405  0.30812326  0.99795288     0.18900
C171        C  0.36559523  0.21488024  0.37059376    -0.06900
C172        C  0.37960051  0.20480649  0.41928353    -0.18000
C173        C  0.40025972  0.24185101  0.46156948     0.10300
C174        C  0.40189248  0.29187069  0.45928663    -0.06800
C175        C  0.39198188  0.30007597  0.40712202    -0.18000
C176        C  0.37229983  0.26378168  0.36466299     0.10300
S177        S  0.42639099  0.21750568  0.50980171    -0.33000
S178        S  0.36258435  0.28491107  0.30182409    -0.33000
H179        H  0.38673650  0.26396550  0.27126105     0.28400
H180        H  0.44102239  0.25329569  0.04702759     0.28300
H181        H  0.37658380  0.16770689  0.42341009     0.18900
H182        H  0.41302280  0.33936863  0.39654024     0.18900
C183        C  0.39196405  0.29647343  0.05882004    -0.06900
C184        C  0.34545731  0.24496129  0.05216621    -0.18000
C185        C  0.32960499  0.20229541  0.08579285     0.10300
C186        C  0.36125384  0.20818407  0.12962920    -0.06800
C187        C  0.40864529  0.25647603  0.13557917    -0.18000
C188        C  0.41135725  0.30009736  0.11237946     0.10300
S189        S  0.27590344  0.13923558  0.06332408    -0.33000
S190        S  0.38300114  0.31456816  0.16853140    -0.33000
H191        H  0.42548375  0.32930559  0.20376493     0.28400
H192        H  0.29698592  0.11120842  0.08445641     0.28300
H193        H  0.32436198  0.23403933  0.01633226     0.18900
H194        H  0.43257001  0.26216104  0.17038740     0.18900
C195        C  0.41840162  0.33866969  0.50516049    -0.03200
C196        C  0.99072687  0.37959544  0.00009636    -0.03200
C197        C  0.02416926  0.45128018  0.50211311    -0.03200
C198        C  0.98486179  0.98497987  0.99697757    -0.03200
C199        C  0.40751121  0.44074050  0.49534815    -0.03200
C200        C  0.37765995  0.36703375  0.99985375    -0.03200
O201        O  0.18188129  0.24256966  0.81739398    -0.86100
O202        O  0.09288875  0.14806962  0.79048628    -0.83200
C203        C  0.05708459  0.14297873  0.82150407     0.97400
O204        O  0.03975987  0.17281739  0.81784346    -0.83200
O205        O  0.04015045  0.26157756  0.79851061    -0.85800
C206        C  0.07564702  0.29501405  0.83017477     1.01900
O207        O  0.12383590  0.31574741  0.81800056    -0.78600
O208        O  0.21405438  0.32146823  0.78762848    -0.78800
C209        C  0.21455807  0.29109328  0.82120573     1.01800
O210        O  0.20909278  0.26151775  0.70643871    -0.86100
O211        O  0.11281410  0.17232512  0.68292626    -0.83200
C212        C  0.06314005  0.14122918  0.67918792     0.97400
O213        O  0.03129702  0.14644431  0.70827271    -0.83200
O214        O  0.04023254  0.23968803  0.68173652    -0.85800
C215        C  0.06321981  0.28822226  0.67421155     1.01800
O216        O  0.09762443  0.31960664  0.70739501    -0.78600
O217        O  0.18311228  0.31267773  0.67824161    -0.78800
C218        C  0.21203058  0.29403445  0.67351174     1.01800
Cr219      Cr  0.14687144  0.20903161  0.74936645     1.93700
Cr220      Cr  0.04308058  0.20826710  0.75109427     1.93200
Cr221      Cr  0.15132869  0.31198573  0.74771482     1.39100
O222        O  0.11348272  0.24280668  0.74899415    -1.23900
O223        O  0.28964065  0.14346102  0.68242448    -0.86100
O224        O  0.19079379  0.05975000  0.71239382    -0.83200
C225        C  0.18564656  0.02757375  0.67742723     0.97400
O226        O  0.21462148  0.00873723  0.67873441    -0.83200
O227        O  0.29883909  0.99707950  0.70188333    -0.85800
C228        C  0.33702536  0.02862176  0.67225069     1.01900
O229        O  0.36205567  0.07694964  0.68241221    -0.78600
O230        O  0.37061884  0.16942395  0.70760583    -0.78800
C231        C  0.33923778  0.17097626  0.67469674     1.01800
O232        O  0.31296801  0.17179386  0.79269891    -0.86100
O233        O  0.22145786  0.07954094  0.81905492    -0.83200
C234        C  0.18761712  0.03117344  0.82231325     0.97400
O235        O  0.18699000  0.99932732  0.78897466    -0.83200
O236        O  0.27563665  0.99680595  0.81275182    -0.85800
C237        C  0.32430291  0.01453548  0.82031824     1.01800
O238        O  0.35966700  0.05303352  0.79374737    -0.78600
O239        O  0.36126707  0.14271057  0.82128542    -0.78800
C240        C  0.34478649  0.17331250  0.82658348     1.01800
Cr241      Cr  0.25655291  0.11107153  0.75137932     1.93700
Cr242      Cr  0.24731959  0.00591866  0.74575650     1.93200
Cr243      Cr  0.35802906  0.10808050  0.75145731     1.39100
O244        O  0.28751219  0.07483504  0.74978095    -1.23900
C245        C  0.33672858  0.34577658  0.55169823    -0.06900
C246        C  0.28594037  0.29805703  0.55051507    -0.18000
C247        C  0.24342376  0.28311436  0.58501257     0.10300
C248        C  0.25176906  0.31164874  0.63116887    -0.06800
C249        C  0.30293116  0.35201538  0.64188672    -0.18000
C250        C  0.34467128  0.36744357  0.60500416     0.10300
S251        S  0.18111677  0.22416057  0.56897242    -0.33000
S252        S  0.40321227  0.41948878  0.63095427    -0.33000
H253        H  0.42751555  0.40993162  0.58846141     0.28400
H254        H  0.14934705  0.23391228  0.60207330     0.28300
H255        H  0.27829246  0.26633758  0.52754047     0.18900
H256        H  0.31040763  0.37257024  0.67941181     0.18900
C257        C  0.33533210  0.33891198  0.94633078    -0.06900
C258        C  0.34711621  0.35901091  0.89337019    -0.18000
C259        C  0.30948847  0.34662376  0.85282514     0.10300
C260        C  0.25546259  0.31158260  0.86319578    -0.06800
C261        C  0.24198142  0.28796710  0.91240055    -0.18000
C262        C  0.28240204  0.29113331  0.94349195     0.10300
S263        S  0.33323094  0.37390074  0.78789642    -0.33000
S264        S  0.27164224  0.22657652  0.93753027    -0.33000
H265        H  0.22397865  0.20310573  0.46442091     0.28400
H266        H  0.30136793  0.32640167  0.76060834     0.28300
H267        H  0.38687473  0.38405481  0.88108086     0.18900
H268        H  0.20108991  0.25634413  0.91893892     0.18900
C269        C  0.37589188  0.44844395  0.94504333    -0.06900
C270        C  0.39922252  0.96439482  0.89332304    -0.18000
C271        C  0.38339261  0.98380743  0.85213527     0.10300
C272        C  0.34006110  0.98891221  0.85966207    -0.06800
C273        C  0.31136907  0.46990196  0.90685315    -0.18000
C274        C  0.32290349  0.44252752  0.94375918     0.10300
S275        S  0.42286120  0.00417658  0.79202297    -0.33000
S276        S  0.25853933  0.39289486  0.97014227    -0.33000
H277        H  0.26969889  0.35841021  0.48612461     0.28400
H278        H  0.37926203  0.98530840  0.75742068     0.28300
H279        H  0.43536697  0.96894199  0.88598368     0.18900
H280        H  0.27581768  0.47122060  0.91162690     0.18900
C281        C  0.38433241  0.46688667  0.53949706    -0.06900
C282        C  0.33208617  0.44048688  0.56237448    -0.18000
C283        C  0.31496548  0.46056760  0.60315758     0.10300
C284        C  0.35169266  0.00781082  0.62532207    -0.06800
C285        C  0.40129824  0.03701789  0.59977908    -0.18000
C286        C  0.40538445  0.02131645  0.54762150     0.10300
S287        S  0.24508512  0.42402080  0.61937871    -0.33000
S288        S  0.38118323  0.05271908  0.50528226    -0.33000
H289        H  0.41335528  0.10311915  0.52728010     0.28400
H290        H  0.24060987  0.46742743  0.61213801     0.28300
H291        H  0.30335355  0.40175101  0.55352684     0.18900
H292        H  0.42795329  0.07720315  0.61204185     0.18900
C293        C  0.99622870  0.02862695  0.54680556    -0.06900
C294        C  0.99655099  0.01455470  0.59915778    -0.18000
C295        C  0.01573590  0.04786725  0.64419438     0.10300
C296        C  0.04191600  0.10155933  0.63682246    -0.06800
C297        C  0.04748261  0.11962791  0.58639889    -0.18000
C298        C  0.01792573  0.08607059  0.54476222     0.10300
S299        S  0.51912143  0.01827100  0.70564355    -0.33000
S300        S  0.99611001  0.12481011  0.51219599    -0.33000
H301        H  0.08335662  0.17451776  0.00577212     0.28400
H302        H  0.06301008  0.06464406  0.72655017     0.28300
H303        H  0.49627035  0.97932942  0.59888320     0.18900
H304        H  0.06729954  0.16158556  0.58228192     0.18900
C305        C  0.00747582  0.02738753  0.94800246    -0.06900
C306        C  0.97750434  0.04831705  0.93184010    -0.18000
C307        C  0.99007435  0.08399812  0.89057763     0.10300
C308        C  0.03733491  0.10208372  0.86244192    -0.06800
C309        C  0.07049753  0.08522089  0.87901591    -0.18000
C310        C  0.06167853  0.06193452  0.92907786     0.10300
S311        S  0.44636149  0.11336855  0.88683662    -0.33000
S312        S  0.11680325  0.10557144  0.97195550    -0.33000
H313        H  0.15751655  0.11974612  0.93436992     0.28400
H314        H  0.98644708  0.15979323  0.90117598     0.28300
H315        H  0.43917073  0.03891314  0.95601089     0.18900
H316        H  0.10968960  0.10290759  0.86120595     0.18900
C317        C  0.06888399  0.47334214  0.55238050    -0.06900
C318        C  0.09232301  0.02620475  0.57336923    -0.18000
C319        C  0.12875971  0.04398358  0.61569698     0.10300
C320        C  0.14516973  0.01151077  0.63560067    -0.06800
C321        C  0.12618216  0.46673323  0.62027180    -0.18000
C322        C  0.10238671  0.45356243  0.57041631     0.10300
S323        S  0.15472729  0.10942650  0.63916452    -0.33000
S324        S  0.13864791  0.43079861  0.53347488    -0.33000
H325        H  0.14092805  0.39869049  0.57180293     0.28400
H326        H  0.20703887  0.12297012  0.64418585     0.28300
H327        H  0.08630650  0.05457623  0.55740775     0.18900
H328        H  0.13920388  0.44304513  0.63819726     0.18900
C329        C  0.06842838  0.47659085  0.95281606    -0.06900
C330        C  0.12402354  0.01394543  0.95526790    -0.18000
C331        C  0.16299778  0.02932242  0.91647357     0.10300
C332        C  0.14801277  0.01175326  0.86499649    -0.06800
C333        C  0.09667561  0.48455443  0.85741992    -0.18000
C334        C  0.05684397  0.46759383  0.89678092     0.10300
S335        S  0.23206924  0.07233781  0.93566877    -0.33000
S336        S  0.99354254  0.44004296  0.86914001    -0.33000
H337        H  0.96737011  0.42057736  0.91731684     0.28400
H338        H  0.25109510  0.04679764  0.90440237     0.28300
H339        H  0.14185217  0.03533419  0.99082041     0.18900
H340        H  0.08539768  0.47630674  0.81588469     0.18900
C341        C  0.01595563  0.36444961  0.94428332    -0.06900
C342        C  0.07187260  0.38527550  0.93528021    -0.18000
C343        C  0.09449725  0.36328999  0.90260437     0.10300
C344        C  0.06089047  0.31342608  0.87946544    -0.06800
C345        C  0.00754263  0.28920613  0.89452553    -0.18000
C346        C  0.99079075  0.32424885  0.90317917     0.10300
S347        S  0.16496350  0.40266183  0.89023178    -0.33000
S348        S  0.49066321  0.34463566  0.83470372    -0.33000
H349        H  0.47071195  0.29663071  0.80796051     0.28400
H350        H  0.17224530  0.36107266  0.89831203     0.28300
H351        H  0.10066378  0.42149080  0.94849297     0.18900
H352        H  0.97963310  0.25170248  0.87653757     0.18900
C353        C  0.04677052  0.30974112  0.63005257    -0.06900
C354        C  0.03067781  0.34307924  0.64419840    -0.18000
C355        C  0.01515943  0.36705790  0.60714013     0.11100
C356        C  0.01208550  0.35701936  0.54934936    -0.06800
C357        C  0.03176617  0.32328586  0.53746342    -0.18000
C358        C  0.04922007  0.30130062  0.57552435     0.10300
S359        S  0.00142205  0.40989926  0.64223426    -0.33000
S360        S  0.07764369  0.26534935  0.55155741    -0.33000
H361        H  0.11943131  0.28865802  0.58852323     0.28400
H362        H  0.03654233  0.42445845  0.68548132     0.28300
H363        H  0.02912721  0.34956901  0.68649086     0.18900
H364        H  0.03158703  0.30950820  0.49817022     0.18900
C365        C  0.36371673  0.21269582  0.87103841    -0.06900
C366        C  0.37759110  0.20256331  0.91979158    -0.18000
C367        C  0.39884749  0.23985199  0.96188307     0.10300
C368        C  0.40092015  0.29012341  0.95957094    -0.06800
C369        C  0.39104330  0.29825498  0.90734365    -0.18000
C370        C  0.37106430  0.26185464  0.86494596     0.10300
S371        S  0.42500512  0.21546287  0.01004667    -0.33000
S372        S  0.36179883  0.28314607  0.80194462    -0.33000
H373        H  0.38566941  0.26189550  0.77139352     0.28400
H374        H  0.44159506  0.25465816  0.54742377     0.28300
H375        H  0.37408954  0.16525732  0.92408933     0.18900
H376        H  0.41247622  0.33753925  0.89661748     0.18900
C377        C  0.39243891  0.29768334  0.55857767    -0.06900
C378        C  0.34583499  0.24622619  0.55168575    -0.18000
C379        C  0.32919935  0.20336998  0.58545245     0.10300
C380        C  0.36021443  0.20875211  0.62972970    -0.06800
C381        C  0.40799319  0.25673544  0.63564392    -0.18000
C382        C  0.41171215  0.30084234  0.61225313     0.10300
S383        S  0.27503813  0.14070899  0.56278329    -0.33000
S384        S  0.38406508  0.31579269  0.66873854    -0.33000
H385        H  0.42645149  0.32989390  0.70391450     0.28400
H386        H  0.29401600  0.11153051  0.58560481     0.28300
H387        H  0.32502842  0.23560986  0.51568966     0.18900
H388        H  0.43186760  0.26200735  0.67037295     0.18900
C389        C  0.42086109  0.83901720  0.00771263    -0.03200
C390        C  0.99276213  0.88198924  0.50234065    -0.03200
C391        C  0.02574692  0.95350113  0.00024849    -0.03200
C392        C  0.98384738  0.48352968  0.49848037    -0.03200
C393        C  0.40590323  0.93806059  0.99572509    -0.03200
C394        C  0.37935596  0.86773573  0.50083373    -0.03200
O395        O  0.18258828  0.73923605  0.31878597    -0.86100
O396        O  0.09087817  0.64653257  0.29235036    -0.83200
C397        C  0.05615364  0.64236210  0.32417975     0.97400
O398        O  0.04087403  0.67398250  0.32235859    -0.83200
O399        O  0.04633519  0.76601413  0.30625964    -0.85800
C400        C  0.08316506  0.80025450  0.33651039     1.01900
O401        O  0.13083134  0.82014592  0.32251502    -0.78600
O402        O  0.21666689  0.81869345  0.28958683    -0.78800
C403        C  0.21620331  0.78758156  0.32272572     1.01800
O404        O  0.20833025  0.75742042  0.20793325    -0.86100
O405        O  0.10849167  0.66952314  0.18557689    -0.83200
C406        C  0.05834040  0.64037546  0.18281100     0.97400
O407        O  0.02859586  0.64860098  0.21210763    -0.83200
O408        O  0.04172668  0.74443821  0.18832087    -0.85800
C409        C  0.06690856  0.79301668  0.17980389     1.01800
O410        O  0.10329528  0.82376507  0.21172593    -0.78600
O411        O  0.18517137  0.81118667  0.18122636    -0.78800
C412        C  0.21316561  0.79154302  0.17615009     1.01800
Cr413      Cr  0.14547005  0.70655758  0.25128928     1.93700
Cr414      Cr  0.04472360  0.71134789  0.25667851     1.93200
Cr415      Cr  0.15525032  0.81267120  0.25116835     1.39100
O416        O  0.11482489  0.74323515  0.25268112    -1.23900
O417        O  0.29338155  0.64977886  0.18736716    -0.86100
O418        O  0.19375460  0.56782803  0.21603262    -0.83200
C419        C  0.18892849  0.53646109  0.18018908     0.97400
O420        O  0.21799899  0.51765362  0.18089731    -0.83200
O421        O  0.29830158  0.49999407  0.20318631    -0.85800
C422        C  0.33677685  0.53059214  0.17335665     1.01900
O423        O  0.36257082  0.57900901  0.18326072    -0.78600
O424        O  0.37421586  0.67248323  0.21018345    -0.78800
C425        C  0.34283922  0.67514737  0.17834091     1.01800
O426        O  0.31779704  0.67575386  0.29730357    -0.86100
O427        O  0.22491132  0.58482636  0.32422957    -0.83200
C428        C  0.19020671  0.53656837  0.32646259     0.97400
O429        O  0.18857062  0.50553469  0.29131795    -0.83200
O430        O  0.27580216  0.49986723  0.31402869    -0.85800
C431        C  0.32436375  0.51673344  0.32125438     1.01800
O432        O  0.36013995  0.55452286  0.29435710    -0.78600
O433        O  0.36619949  0.64574203  0.32321369    -0.78800
C434        C  0.35030549  0.67668286  0.32974142     1.01800
Cr435      Cr  0.26021240  0.61689002  0.25599006     1.93700
Cr436      Cr  0.24836847  0.51102342  0.24757985     1.93200
Cr437      Cr  0.36037971  0.61065483  0.25301702     1.39100
O438        O  0.28997954  0.57945151  0.25269123    -1.23900
C439        C  0.33687728  0.84311206  0.05276316    -0.06900
C440        C  0.28456184  0.79705438  0.05073819    -0.18000
C441        C  0.24288219  0.78258469  0.08614720     0.10300
C442        C  0.25311312  0.80888986  0.13395765    -0.06800
C443        C  0.30518170  0.84723637  0.14490976    -0.18000
C444        C  0.34609161  0.86327675  0.10680431     0.10300
S445        S  0.17914861  0.72595560  0.06903743    -0.33000
S446        S  0.40431688  0.91702257  0.13087987    -0.33000
H447        H  0.42941120  0.90631760  0.09001711     0.28400
H448        H  0.14795771  0.73189287  0.10675342     0.28300
H449        H  0.27492574  0.76451980  0.02808574     0.18900
H450        H  0.31366350  0.86706761  0.18285341     0.18900
C451        C  0.33702995  0.83782354  0.44778691    -0.06900
C452        C  0.34820114  0.85783455  0.39505530    -0.18000
C453        C  0.31060960  0.84440625  0.35452332     0.10300
C454        C  0.25701660  0.80754135  0.36450501    -0.06800
C455        C  0.24399034  0.78346205  0.41340055    -0.18000
C456        C  0.28506958  0.78865150  0.44492629     0.10300
S457        S  0.33420220  0.87290144  0.29008142    -0.33000
S458        S  0.27635474  0.72488483  0.44039956    -0.33000
H459        H  0.22465592  0.69821077  0.96343367     0.28400
H460        H  0.30452927  0.82500174  0.26284918     0.28300
H461        H  0.38756779  0.88352092  0.38287898     0.18900
H462        H  0.20354737  0.75081395  0.41965333     0.18900
C463        C  0.37605625  0.94791821  0.44413609    -0.06900
C464        C  0.39858547  0.46592621  0.39336303    -0.18000
C465        C  0.38232434  0.48488224  0.35230320     0.10300
C466        C  0.33988904  0.49126274  0.36062739    -0.06800
C467        C  0.31251479  0.97160718  0.40885564    -0.18000
C468        C  0.32345730  0.94254815  0.44396545     0.10300
S469        S  0.42043316  0.50311535  0.29125320    -0.33000
S470        S  0.25873643  0.88998416  0.46664309    -0.33000
H471        H  0.27144678  0.85562529  0.98501507     0.28400
H472        H  0.37644892  0.48533265  0.25744392     0.28300
H473        H  0.43362140  0.46854392  0.38511164     0.18900
H474        H  0.27782604  0.97398664  0.41526401     0.18900
C475        C  0.38109432  0.96232473  0.04017477    -0.06900
C476        C  0.32959362  0.93474423  0.06520292    -0.18000
C477        C  0.31316294  0.95495039  0.10674420     0.10300
C478        C  0.35110554  0.50863164  0.12679800    -0.06800
C479        C  0.40020986  0.53764970  0.10034542    -0.18000
C480        C  0.40411259  0.52099727  0.04852669     0.10300
S481        S  0.24377079  0.91823556  0.12464717    -0.33000
S482        S  0.37910571  0.55152920  0.00604560    -0.33000
H483        H  0.41662085  0.60288964  0.02284118     0.28400
H484        H  0.23850300  0.96078246  0.11502913     0.28300
H485        H  0.30054943  0.89576922  0.05672300     0.18900
H486        H  0.42614583  0.57828610  0.11139168     0.18900
C487        C  0.00154498  0.53080549  0.04579085    -0.06900
C488        C  0.99996840  0.51574367  0.09864461    -0.18000
C489        C  0.01667913  0.54785618  0.14468767     0.10300
C490        C  0.03450966  0.60049246  0.14022883    -0.06800
C491        C  0.03556985  0.61904858  0.09113684    -0.18000
C492        C  0.02294779  0.58877267  0.04459649     0.10300
S493        S  0.52262259  0.52129270  0.20694091    -0.33000
S494        S  0.03819713  0.63765282  0.99412936    -0.33000
H495        H  0.09115657  0.67416656  0.51317228     0.28400
H496        H  0.06232792  0.56614782  0.22850131     0.28300
H497        H  0.49604631  0.47981229  0.10330370     0.18900
H498        H  0.04855708  0.66009131  0.09017712     0.18900
C499        C  0.00681581  0.52612062  0.44966544    -0.06900
C500        C  0.97736527  0.54814476  0.43484105    -0.18000
C501        C  0.98949338  0.58357165  0.39344080     0.10300
C502        C  0.03586674  0.60066916  0.36416177    -0.06800
C503        C  0.06833360  0.58247812  0.37897182    -0.18000
C504        C  0.06064071  0.55933194  0.42888745     0.10300
S505        S  0.44843141  0.61173587  0.38500064    -0.33000
S506        S  0.11912651  0.59993336  0.46938440    -0.33000
H507        H  0.15783965  0.61625601  0.42908316     0.28400
H508        H  0.98639798  0.65900682  0.40750987     0.28300
H509        H  0.44422985  0.54053504  0.45687988     0.18900
H510        H  0.10665936  0.59879903  0.35960461     0.18900
C511        C  0.07319095  0.97653872  0.04799243    -0.06900
C512        C  0.09414168  0.52662502  0.07204773    -0.18000
C513        C  0.13126862  0.54866189  0.11397736     0.10300
C514        C  0.14714798  0.51825748  0.13927939    -0.06800
C515        C  0.12859750  0.96434073  0.11173441    -0.18000
C516        C  0.10831757  0.95701757  0.06036076     0.10300
S517        S  0.15720727  0.61600748  0.13033005    -0.33000
S518        S  0.17054788  0.97330109  0.02736494    -0.33000
H519        H  0.16383294  0.92448271  0.03755721     0.28400
H520        H  0.20629387  0.62917562  0.15065830     0.28300
H521        H  0.08918077  0.55404187  0.05282709     0.18900
H522        H  0.14200761  0.93948725  0.12587072     0.18900
C523        C  0.06522092  0.97842173  0.44917124    -0.06900
C524        C  0.12595809  0.50860673  0.46186180    -0.18000
C525        C  0.16514678  0.52670487  0.42248237     0.10300
C526        C  0.15037222  0.51589538  0.36955350    -0.06800
C527        C  0.09377875  0.98174302  0.35451258    -0.18000
C528        C  0.05376570  0.96559247  0.39372543     0.10300
S529        S  0.23417328  0.56354204  0.44313502    -0.33000
S530        S  0.99067660  0.93668470  0.36613792    -0.33000
H531        H  0.96716357  0.92235650  0.41617551     0.28400
H532        H  0.25264845  0.54379716  0.40360137     0.28300
H533        H  0.14481184  0.52273156  0.49943585     0.18900
H534        H  0.08270982  0.96933525  0.31353955     0.18900
C535        C  0.02003967  0.86745485  0.44873182    -0.06900
C536        C  0.07643635  0.89009619  0.44315419    -0.18000
C537        C  0.10120684  0.87021562  0.40957606     0.10300
C538        C  0.06939218  0.81932268  0.38664470    -0.06800
C539        C  0.01608428  0.79326327  0.40240435    -0.18000
C540        C  0.99697795  0.82653517  0.40835601     0.10300
S541        S  0.17044890  0.91292081  0.39494306    -0.33000
S542        S  0.49590769  0.84483295  0.33818864    -0.33000
H543        H  0.47564463  0.79604045  0.31304418     0.28400
H544        H  0.18090604  0.87302385  0.39621577     0.28300
H545        H  0.10154670  0.92423071  0.46307292     0.18900
H546        H  0.98917641  0.75463974  0.38609970     0.18900
C547        C  0.05155220  0.81544460  0.13520094    -0.06900
C548        C  0.03679223  0.85010593  0.14830606    -0.18000
C549        C  0.02138630  0.87378884  0.11034612     0.11100
C550        C  0.01604719  0.86146688  0.05293356    -0.06800
C551        C  0.03524268  0.82705447  0.04233438    -0.18000
C552        C  0.05299871  0.80574059  0.08084313     0.10300
S553        S  0.00964082  0.91824852  0.14406202    -0.33000
S554        S  0.07805979  0.76662867  0.05759371    -0.33000
H555        H  0.12013649  0.78868796  0.09422629     0.28400
H556        H  0.04637586  0.93409120  0.18604048     0.28300
H557        H  0.03636185  0.85802512  0.19040754     0.18900
H558        H  0.03227020  0.81039725  0.00387828     0.18900
C559        C  0.37027807  0.71601142  0.37390957    -0.06900
C560        C  0.38385974  0.70575158  0.42280582    -0.18000
C561        C  0.40343402  0.74254895  0.46535983     0.10300
C562        C  0.40466708  0.79228479  0.46250214    -0.06800
C563        C  0.39604880  0.80086579  0.41009982    -0.18000
C564        C  0.37706165  0.76488479  0.36763878     0.10300
S565        S  0.42914634  0.71881010  0.51478457    -0.33000
S566        S  0.36903958  0.78674327  0.30428020    -0.33000
H567        H  0.39223608  0.76465506  0.27398913     0.28400
H568        H  0.44784154  0.75902993  0.04747741     0.28300
H569        H  0.38097451  0.66873671  0.42710088     0.18900
H570        H  0.41690578  0.84015818  0.39973769     0.18900
C571        C  0.39697178  0.80027070  0.06220017    -0.06900
C572        C  0.34890464  0.75027386  0.05670192    -0.18000
C573        C  0.33183981  0.70743529  0.09020426     0.10300
C574        C  0.36400397  0.71176484  0.13284513    -0.06800
C575        C  0.41377021  0.75796921  0.13671686    -0.18000
C576        C  0.41929115  0.80309391  0.11423689     0.10300
S577        S  0.27589786  0.64551917  0.06829431    -0.33000
S578        S  0.39792664  0.82188295  0.17306122    -0.33000
H579        H  0.44079190  0.83235378  0.20598541     0.28400
H580        H  0.29324827  0.61494232  0.09104058     0.28300
H581        H  0.32770265  0.74081380  0.02130847     0.18900
H582        H  0.43901223  0.76202513  0.16976493     0.18900
C583        C  0.42038334  0.83909061  0.50778658    -0.03200
C584        C  0.99336523  0.88172298  0.00268428    -0.03200
C585        C  0.02327547  0.95363388  0.50041767    -0.03200
C586        C  0.98395893  0.48433264  0.99814431    -0.03200
C587        C  0.40839942  0.94003599  0.49503259    -0.03200
C588        C  0.37841899  0.86615864  0.00030148    -0.03200
O589        O  0.18262629  0.74023724  0.81666770    -0.86100
O590        O  0.09066708  0.64788656  0.79210553    -0.83200
C591        C  0.05520231  0.64304625  0.82344738     0.97400
O592        O  0.03888138  0.67382299  0.82096076    -0.83200
O593        O  0.04418260  0.76580433  0.80486831    -0.85800
C594        C  0.08047160  0.79839642  0.83651691     1.01900
O595        O  0.12835186  0.81793268  0.82361958    -0.78600
O596        O  0.21589779  0.81996582  0.78907451    -0.78800
C597        C  0.21605480  0.78851354  0.82124360     1.01800
O598        O  0.20591405  0.75844661  0.70469203    -0.86100
O599        O  0.10653125  0.66947073  0.68443748    -0.83200
C600        C  0.05638811  0.64022114  0.68216517     0.97400
O601        O  0.02692435  0.64894273  0.71118194    -0.83200
O602        O  0.04110418  0.74521939  0.68733228    -0.85800
C603        C  0.06571025  0.79397444  0.68025794     1.01800
O604        O  0.10078202  0.82419269  0.71357831    -0.78600
O605        O  0.18440565  0.81455697  0.68136539    -0.78800
C606        C  0.21139064  0.79396699  0.67441473     1.01800
Cr607      Cr  0.14437680  0.70739905  0.74961305     1.93700
Cr608      Cr  0.04321765  0.71160181  0.75547700     1.93200
Cr609      Cr  0.15356649  0.81333663  0.75175819     1.39100
O610        O  0.11348479  0.74375711  0.75176435    -1.23900
O611        O  0.29305429  0.64865743  0.68797957    -0.86100
O612        O  0.19344110  0.56589033  0.71644628    -0.83200
C613        C  0.18809109  0.53401105  0.68098071     0.97400
O614        O  0.21718817  0.51522310  0.68147589    -0.83200
O615        O  0.29898191  0.49950309  0.70299160    -0.85800
C616        C  0.33749819  0.53057725  0.67346277     1.01900
O617        O  0.36324258  0.57890208  0.68386739    -0.78600
O618        O  0.37400240  0.67208383  0.71127910    -0.78800
C619        C  0.34263705  0.67484792  0.67948543     1.01800
O620        O  0.31681663  0.67394790  0.79804783    -0.86100
O621        O  0.22470268  0.58271109  0.82434062    -0.83200
C622        C  0.19032832  0.53444358  0.82679908     0.97400
O623        O  0.18888245  0.50325641  0.79197853    -0.83200
O624        O  0.27664321  0.49850320  0.81393449    -0.85800
C625        C  0.32525919  0.51586189  0.82136919     1.01800
O626        O  0.36089101  0.55397872  0.79472612    -0.78600
O627        O  0.36538170  0.64423813  0.82418002    -0.78800
C628        C  0.34918391  0.67492328  0.83068895     1.01800
Cr629      Cr  0.25975973  0.61509131  0.75638114     1.93700
Cr630      Cr  0.24868460  0.50944975  0.74780719     1.93200
Cr631      Cr  0.36041858  0.60992593  0.75371104     1.39100
O632        O  0.28990392  0.57803175  0.75293532    -1.23900
C633        C  0.33770630  0.84593019  0.55343372    -0.06900
C634        C  0.28720481  0.79780889  0.55266778    -0.18000
C635        C  0.24436993  0.78292019  0.58683430     0.10300
C636        C  0.25165743  0.81223771  0.63214887    -0.06800
C637        C  0.30257716  0.85363316  0.64254722    -0.18000
C638        C  0.34486609  0.86878334  0.60620120     0.10300
S639        S  0.18285316  0.72295036  0.57151227    -0.33000
S640        S  0.40359467  0.92111607  0.63210900    -0.33000
H641        H  0.42741666  0.90872314  0.59150495     0.28400
H642        H  0.14916140  0.73140510  0.60311805     0.28300
H643        H  0.27997191  0.76576632  0.53035451     0.18900
H644        H  0.30961783  0.87473636  0.67969072     0.18900
C645        C  0.33665904  0.83681922  0.94658179    -0.06900
C646        C  0.34814171  0.85720561  0.89383245    -0.18000
C647        C  0.31079211  0.84406400  0.85295159     0.10300
C648        C  0.25701473  0.80788875  0.86294637    -0.06800
C649        C  0.24381324  0.78347686  0.91169899    -0.18000
C650        C  0.28471694  0.78793030  0.94300564     0.10300
S651        S  0.33482032  0.87198984  0.78819927    -0.33000
S652        S  0.27559399  0.72387073  0.94016717    -0.33000
H653        H  0.22627923  0.69882234  0.46550947     0.28400
H654        H  0.30303024  0.82478409  0.76030921     0.28300
H655        H  0.38742622  0.88308342  0.88188218     0.18900
H656        H  0.20328447  0.75096049  0.91776844     0.18900
C657        C  0.37478341  0.94647890  0.94414478    -0.06900
C658        C  0.39957259  0.46542383  0.89392104    -0.18000
C659        C  0.38359601  0.48459742  0.85282557     0.10300
C660        C  0.34089986  0.49059087  0.86084521    -0.06800
C661        C  0.30971506  0.96650984  0.90491548    -0.18000
C662        C  0.32150746  0.93939287  0.94203335     0.10300
S663        S  0.42220963  0.50354649  0.79214509    -0.33000
S664        S  0.25883426  0.89132729  0.97187087    -0.33000
H665        H  0.27132410  0.85569069  0.48511259     0.28400
H666        H  0.37853044  0.48573260  0.75789756     0.28300
H667        H  0.43476183  0.46814582  0.88585055     0.18900
H668        H  0.27458573  0.96819226  0.91013378     0.18900
C669        C  0.38508603  0.96633649  0.53869830    -0.06900
C670        C  0.33218362  0.94013945  0.56010172    -0.18000
C671        C  0.31474491  0.95990974  0.60084256     0.10300
C672        C  0.35176069  0.50914471  0.62655727    -0.06800
C673        C  0.40073053  0.53835275  0.59997664    -0.18000
C674        C  0.40433583  0.52189281  0.54797693     0.10300
S675        S  0.24463701  0.92375421  0.61609227    -0.33000
S676        S  0.38019937  0.55292532  0.50515075    -0.33000
H677        H  0.41406814  0.60377423  0.52548304     0.28400
H678        H  0.24122902  0.96761706  0.60801155     0.28300
H679        H  0.30354854  0.90148759  0.55094010     0.18900
H680        H  0.42683425  0.57889890  0.61127653     0.18900
C681        C  0.00109001  0.52991054  0.54614770    -0.06900
C682        C  0.99954335  0.51505243  0.59912985    -0.18000
C683        C  0.01592168  0.54740127  0.64503464     0.10300
C684        C  0.03194209  0.59961326  0.64034577    -0.06800
C685        C  0.03177831  0.61749482  0.59124162    -0.18000
C686        C  0.02172158  0.58769711  0.54475803     0.10300
S687        S  0.51967745  0.51958007  0.70657889    -0.33000
S688        S  0.04035073  0.63715575  0.49393075    -0.33000
H689        H  0.09076344  0.67388595  0.00903572     0.28400
H690        H  0.02695158  0.56045371  0.74037464     0.28300
H691        H  0.49604724  0.48052969  0.60208552     0.18900
H692        H  0.04293767  0.65802310  0.59005082     0.18900
C693        C  0.00651322  0.52677505  0.94917334    -0.06900
C694        C  0.97704785  0.54893435  0.93475531    -0.18000
C695        C  0.98896463  0.58446273  0.89345598     0.10300
C696        C  0.03505389  0.60137151  0.86362313    -0.06800
C697        C  0.06722651  0.58260047  0.87777546    -0.18000
C698        C  0.05999974  0.55955478  0.92770786     0.10300
S699        S  0.44759523  0.61141605  0.88928900    -0.33000
S700        S  0.11851109  0.60084044  0.96772323    -0.33000
H701        H  0.15694120  0.61607277  0.92729118     0.28400
H702        H  0.98729225  0.66103257  0.90594954     0.28300
H703        H  0.44434760  0.53972683  0.95991125     0.18900
H704        H  0.10527093  0.59850154  0.85793859     0.18900
C705        C  0.07070367  0.97685961  0.54775589    -0.06900
C706        C  0.09381492  0.52552293  0.57313562    -0.18000
C707        C  0.13047775  0.54671881  0.61551814     0.10300
C708        C  0.14606675  0.51589108  0.64036298    -0.06800
C709        C  0.12750610  0.96467803  0.60918752    -0.18000
C710        C  0.10731952  0.95874483  0.55795896     0.10300
S711        S  0.15607966  0.61344727  0.63398562    -0.33000
S712        S  0.17056198  0.98002487  0.52430590    -0.33000
H713        H  0.16741312  0.93247517  0.53225399     0.28400
H714        H  0.20724607  0.62682884  0.64747888     0.28300
H715        H  0.08881434  0.55326437  0.55460772     0.18900
H716        H  0.14193640  0.94018067  0.62165740     0.18900
C717        C  0.06747704  0.97665901  0.94886234    -0.06900
C718        C  0.12598328  0.50930389  0.96161204    -0.18000
C719        C  0.16522008  0.52679252  0.92245087     0.10300
C720        C  0.15050869  0.51426232  0.86969898    -0.06800
C721        C  0.09411576  0.98003483  0.85357785    -0.18000
C722        C  0.05490777  0.96492567  0.89340012     0.10300
S723        S  0.23422312  0.56541986  0.94313641    -0.33000
S724        S  0.99188069  0.93985114  0.86653780    -0.33000
H725        H  0.96785839  0.92292073  0.91604542     0.28400
H726        H  0.25328884  0.54469465  0.90532123     0.28300
H727        H  0.14491700  0.52398143  0.99903068     0.18900
H728        H  0.08230051  0.96959550  0.81238805     0.18900
C729        C  0.01949656  0.86648700  0.94902605    -0.06900
C730        C  0.07542434  0.88718002  0.94451519    -0.18000
C731        C  0.09914170  0.86629179  0.91124806     0.10300
C732        C  0.06616463  0.81660814  0.88662392    -0.06800
C733        C  0.01257578  0.79206467  0.90067444    -0.18000
C734        C  0.99577316  0.82706191  0.90740343     0.10300
S735        S  0.16906832  0.90593241  0.89979820    -0.33000
S736        S  0.49510772  0.84329593  0.83927601    -0.33000
H737        H  0.47438675  0.79374857  0.81571058     0.28400
H738        H  0.17582828  0.86358759  0.90265185     0.28300
H739        H  0.10069914  0.91961629  0.96645631     0.18900
H740        H  0.98500186  0.75451364  0.88259069     0.18900
C741        C  0.05130043  0.81695143  0.63551812    -0.06900
C742        C  0.03677590  0.85182588  0.64839823    -0.18000
C743        C  0.02104690  0.87510296  0.61031450     0.11100
C744        C  0.01598019  0.86263988  0.55287156    -0.06800
C745        C  0.03612052  0.82899733  0.54247881    -0.18000
C746        C  0.05293110  0.80707989  0.58125588     0.10300
S747        S  0.00846297  0.91894549  0.64425207    -0.33000
S748        S  0.07602505  0.76610027  0.55844857    -0.33000
H749        H  0.11610632  0.78454128  0.59702363     0.28400
H750        H  0.04580803  0.93578294  0.68575284     0.28300
H751        H  0.03631225  0.85984815  0.69047351     0.18900
H752        H  0.03434568  0.81306292  0.50396788     0.18900
C753        C  0.36899265  0.71428583  0.87479179    -0.06900
C754        C  0.38181199  0.70389518  0.92398175    -0.18000
C755        C  0.40182465  0.74100732  0.96624523     0.10300
C756        C  0.40473630  0.79153745  0.96279614    -0.06800
C757        C  0.39586276  0.79968606  0.91030510    -0.18000
C758        C  0.37645147  0.76336854  0.86810475     0.10300
S759        S  0.42675575  0.71690686  0.01580427    -0.33000
S760        S  0.36822627  0.78481075  0.80456599    -0.33000
H761        H  0.39188797  0.76308114  0.77440080     0.28400
H762        H  0.44499345  0.75693640  0.55164139     0.28300
H763        H  0.37799428  0.66648741  0.92871566     0.18900
H764        H  0.41606100  0.83883543  0.89972198     0.18900
C765        C  0.39503473  0.79930885  0.56179921    -0.06900
C766        C  0.34890099  0.74769405  0.55552725    -0.18000
C767        C  0.33271073  0.70550642  0.58987454     0.10300
C768        C  0.36375169  0.71208064  0.63438544    -0.06800
C769        C  0.41112276  0.76051753  0.64019212    -0.18000
C770        C  0.41427264  0.80390950  0.61569956     0.10300
S771        S  0.27910774  0.64211538  0.56788815    -0.33000
S772        S  0.38517367  0.81852658  0.67113461    -0.33000
H773        H  0.42802803  0.83520950  0.70638837     0.28400
H774        H  0.29795700  0.61364792  0.59263939     0.28300
H775        H  0.32831013  0.73644898  0.51967888     0.18900
H776        H  0.43465904  0.76659827  0.67545141     0.18900
C777        C  0.91822101  0.33826022  0.00579134    -0.03200
C778        C  0.49096047  0.38048568  0.49986948    -0.03200
C779        C  0.52394407  0.45101208  0.00221683    -0.03200
C780        C  0.48414969  0.98442581  0.49689224    -0.03200
C781        C  0.90793051  0.44073178  0.99588892    -0.03200
C782        C  0.87806659  0.36726579  0.50001546    -0.03200
O783        O  0.68190047  0.24220198  0.31796358    -0.86100
O784        O  0.59266801  0.14785205  0.29061191    -0.83200
C785        C  0.55648470  0.14253340  0.32125589     0.97400
O786        O  0.53927165  0.17243831  0.31744864    -0.83200
O787        O  0.54080660  0.26201410  0.29912098    -0.85800
C788        C  0.57629447  0.29536142  0.33094322     1.01900
O789        O  0.62446768  0.31564592  0.31910764    -0.78600
O790        O  0.71441357  0.32120713  0.28837266    -0.78800
C791        C  0.71478064  0.29068608  0.32180306     1.01800
O792        O  0.70942058  0.26167968  0.20701646    -0.86100
O793        O  0.61328723  0.17245985  0.18313968    -0.83200
C794        C  0.56362429  0.14169055  0.17888601     0.97400
O795        O  0.53167522  0.14715574  0.20757676    -0.83200
O796        O  0.54128276  0.24080596  0.18200900    -0.85800
C797        C  0.56416212  0.28936311  0.17493124     1.01800
O798        O  0.59836499  0.32046472  0.20847744    -0.78600
O799        O  0.68390254  0.31344864  0.17936737    -0.78800
C800        C  0.71279933  0.29479267  0.17457581     1.01800
Cr801      Cr  0.64703546  0.20898164  0.24975805     1.93700
Cr802      Cr  0.54348147  0.20873129  0.25108594     1.93200
Cr803      Cr  0.65188429  0.31223438  0.24870167     1.39100
O804        O  0.61385901  0.24298972  0.24941499    -1.23900
O805        O  0.79160720  0.14566694  0.18396775    -0.86100
O806        O  0.69265854  0.06192099  0.21187790    -0.83200
C807        C  0.68784177  0.02982766  0.17688130     0.97400
O808        O  0.71675169  0.01094661  0.17859088    -0.83200
O809        O  0.80059928  0.99903731  0.20258315    -0.85800
C810        C  0.83842379  0.03050939  0.17255564     1.01900
O811        O  0.86311175  0.07887988  0.18234098    -0.78600
O812        O  0.87251352  0.17140311  0.20916227    -0.78800
C813        C  0.84117114  0.17301573  0.17633307     1.01800
O814        O  0.81405503  0.17234752  0.29457598    -0.86100
O815        O  0.72178676  0.08051916  0.31942326    -0.83200
C816        C  0.68773903  0.03217476  0.32207053     0.97400
O817        O  0.68761153  0.00069656  0.28855089    -0.83200
O818        O  0.77659400  0.99854215  0.31312914    -0.85800
C819        C  0.82519099  0.01552816  0.32013854     1.01800
O820        O  0.86063692  0.05366865  0.29324802    -0.78600
O821        O  0.86298130  0.14347433  0.32212071    -0.78800
C822        C  0.84626976  0.17383610  0.32794858     1.01800
Cr823      Cr  0.75787094  0.11263476  0.25222537     1.93700
Cr824      Cr  0.74863113  0.00767132  0.24594704     1.93200
Cr825      Cr  0.85941873  0.10941974  0.25192453     1.39100
O826        O  0.78884064  0.07645220  0.25038799    -1.23900
C827        C  0.83725254  0.34662950  0.05255343    -0.06900
C828        C  0.78685039  0.29865706  0.05187698    -0.18000
C829        C  0.74464752  0.28330722  0.08686814     0.10300
C830        C  0.75255870  0.31261055  0.13228038    -0.06800
C831        C  0.80334229  0.35402886  0.14232148    -0.18000
C832        C  0.84515010  0.36906136  0.10556444     0.10300
S833        S  0.68311433  0.22306158  0.07243207    -0.33000
S834        S  0.90397283  0.42057813  0.13177037    -0.33000
H835        H  0.92784041  0.41047829  0.08928955     0.28400
H836        H  0.65060945  0.23439837  0.10232827     0.28300
H837        H  0.77935633  0.26729433  0.02858060     0.18900
H838        H  0.81065875  0.37513883  0.17949980     0.18900
C839        C  0.83569650  0.33889779  0.44663892    -0.06900
C840        C  0.84742016  0.35878826  0.39362297    -0.18000
C841        C  0.80976398  0.34608585  0.35305812     0.10300
C842        C  0.75576354  0.31109876  0.36361847    -0.06800
C843        C  0.74232173  0.28787529  0.41300383    -0.18000
C844        C  0.78277711  0.29110891  0.44405168     0.10300
S845        S  0.83345777  0.37308649  0.28798198    -0.33000
S846        S  0.77214342  0.22660969  0.43798864    -0.33000
H847        H  0.72186343  0.20382209  0.96498559     0.28400
H848        H  0.80129483  0.32564239  0.26069901     0.28300
H849        H  0.88713126  0.38391664  0.38132391     0.18900
H850        H  0.70140642  0.25640968  0.41975868     0.18900
C851        C  0.87552839  0.44833430  0.44498387    -0.06900
C852        C  0.89963660  0.96480166  0.39301795    -0.18000
C853        C  0.88420035  0.98460124  0.35187519     0.10300
C854        C  0.84070712  0.98952238  0.35922197    -0.06800
C855        C  0.81086778  0.47026825  0.40796240    -0.18000
C856        C  0.82258267  0.44258238  0.44435563     0.10300
S857        S  0.92435918  0.00570928  0.29220993    -0.33000
S858        S  0.75834961  0.39250570  0.47066292    -0.33000
H859        H  0.77026989  0.35836665  0.98740447     0.28400
H860        H  0.88114931  0.98692771  0.25712461     0.28300
H861        H  0.93581965  0.96917839  0.38589625     0.18900
H862        H  0.77552556  0.47183425  0.41341661     0.18900
C863        C  0.88484126  0.46730062  0.04014842    -0.06900
C864        C  0.83223078  0.44134267  0.06244535    -0.18000
C865        C  0.81485026  0.46130573  0.10321233     0.10300
C866        C  0.85312596  0.00945845  0.12587120    -0.06800
C867        C  0.90244581  0.03865544  0.09987768    -0.18000
C868        C  0.90643491  0.02231133  0.04797992     0.10300
S869        S  0.74488930  0.42486219  0.11910833    -0.33000
S870        S  0.88321578  0.05401924  0.00495016    -0.33000
H871        H  0.91728082  0.10474307  0.02548031     0.28400
H872        H  0.74074820  0.46858578  0.11294960     0.28300
H873        H  0.80346692  0.40264830  0.05372214     0.18900
H874        H  0.92877172  0.07909879  0.11150399     0.18900
C875        C  0.49700663  0.02888279  0.04657355    -0.06900
C876        C  0.49787639  0.01497047  0.09885760    -0.18000
C877        C  0.51695499  0.04835792  0.14382954     0.10300
C878        C  0.54264468  0.10201138  0.13645911    -0.06800
C879        C  0.54825890  0.11998471  0.08595178    -0.18000
C880        C  0.51862724  0.08629304  0.04439597     0.10300
S881        S  0.01918578  0.01848421  0.20558262    -0.33000
S882        S  0.49632134  0.12470495  0.01206993    -0.33000
H883        H  0.58378133  0.17435104  0.50638219     0.28400
H884        H  0.56456197  0.06553305  0.22597202     0.28300
H885        H  0.99682311  0.97955355  0.09827304     0.18900
H886        H  0.56811975  0.16193480  0.08169343     0.18900
C887        C  0.50650496  0.02690868  0.44791236    -0.06900
C888        C  0.47710011  0.04885313  0.43267743    -0.18000
C889        C  0.48990676  0.08483748  0.39155989     0.10300
C890        C  0.53624871  0.10142993  0.36212234    -0.06800
C891        C  0.56818406  0.08266956  0.37732179    -0.18000
C892        C  0.56028497  0.06039342  0.42778663     0.10300
S893        S  0.94648520  0.11306242  0.38623305    -0.33000
S894        S  0.61600606  0.10501355  0.46951958    -0.33000
H895        H  0.65617800  0.11973025  0.43112230     0.28400
H896        H  0.48952855  0.16253191  0.40169105     0.28300
H897        H  0.93920804  0.03900485  0.45616282     0.18900
H898        H  0.60665390  0.09868462  0.35833548     0.18900
C899        C  0.56876733  0.47304273  0.05246427    -0.06900
C900        C  0.59362216  0.02690810  0.07272342    -0.18000
C901        C  0.63073531  0.04546443  0.11450035     0.10300
C902        C  0.64751945  0.01346063  0.13473844    -0.06800
C903        C  0.62667567  0.46706709  0.12027615    -0.18000
C904        C  0.60273050  0.45363580  0.07048916     0.10300
S905        S  0.65648013  0.11106829  0.13724697    -0.33000
S906        S  0.63876981  0.43022813  0.03407489    -0.33000
H907        H  0.64024698  0.39780571  0.07255741     0.28400
H908        H  0.70869118  0.12484616  0.14431399     0.28300
H909        H  0.58710940  0.05491655  0.05683196     0.18900
H910        H  0.64014911  0.44372974  0.13815956     0.18900
C911        C  0.56789971  0.47779521  0.45311550    -0.06900
C912        C  0.62338327  0.01313354  0.45517665    -0.18000
C913        C  0.66246443  0.02890261  0.41638252     0.10300
C914        C  0.64770676  0.01231903  0.36458266    -0.06800
C915        C  0.59587510  0.48686432  0.35760728    -0.18000
C916        C  0.55610800  0.46899743  0.39713418     0.10300
S917        S  0.73148187  0.07093677  0.43613744    -0.33000
S918        S  0.49251101  0.43994831  0.36989137    -0.33000
H919        H  0.46653913  0.42140422  0.41829575     0.28400
H920        H  0.75040101  0.04593177  0.40386147     0.28300
H921        H  0.64130506  0.03404092  0.49088135     0.18900
H922        H  0.58452053  0.47865099  0.31608889     0.18900
C923        C  0.51661747  0.36580062  0.44397036    -0.06900
C924        C  0.57258176  0.38695070  0.43464569    -0.18000
C925        C  0.59525892  0.36450491  0.40261327     0.10300
C926        C  0.56163829  0.31433187  0.37993213    -0.06800
C927        C  0.50827636  0.29044099  0.39466814    -0.18000
C928        C  0.49174481  0.32571309  0.40275510     0.10300
S929        S  0.66564304  0.40390636  0.38988844    -0.33000
S930        S  0.99070676  0.34465731  0.33482454    -0.33000
H931        H  0.97162092  0.29674815  0.30817784     0.28400
H932        H  0.67311706  0.36254526  0.39866760     0.28300
H933        H  0.60128694  0.42383588  0.44655227     0.18900
H934        H  0.48038923  0.25295472  0.37666717     0.18900
C935        C  0.54778533  0.31095618  0.13067920    -0.06900
C936        C  0.53216532  0.34471052  0.14459478    -0.18000
C937        C  0.51564414  0.36778488  0.10744591     0.11100
C938        C  0.51173611  0.35695323  0.04969526    -0.06800
C939        C  0.53069836  0.32260238  0.03806934    -0.18000
C940        C  0.54854425  0.30101771  0.07622884     0.10300
S941        S  0.50163499  0.41046997  0.14239464    -0.33000
S942        S  0.57527691  0.26351213  0.05240076    -0.33000
H943        H  0.61741762  0.28621210  0.08897977     0.28400
H944        H  0.53757835  0.42619928  0.18505204     0.28300
H945        H  0.53151643  0.35201648  0.18682171     0.18900
H946        H  0.52930113  0.30787094  0.99892235     0.18900
C947        C  0.86541070  0.21317445  0.37230255    -0.06900
C948        C  0.88001257  0.20345587  0.42087532    -0.18000
C949        C  0.90088580  0.24079772  0.46292012     0.10300
C950        C  0.90194110  0.29054392  0.46046739    -0.06800
C951        C  0.89169586  0.29840304  0.40839741    -0.18000
C952        C  0.87195844  0.26196879  0.36615957     0.10300
S953        S  0.92775150  0.21718199  0.51120798    -0.33000
S954        S  0.86216073  0.28292313  0.30317811    -0.33000
H955        H  0.88662681  0.26238182  0.27245351     0.28400
H956        H  0.94015690  0.25339727  0.04935981     0.28300
H957        H  0.87730404  0.16651096  0.42508766     0.18900
H958        H  0.91292126  0.33765901  0.39760333     0.18900
C959        C  0.89236375  0.29801963  0.05957666    -0.06900
C960        C  0.84601151  0.24637851  0.05313700    -0.18000
C961        C  0.83043599  0.20397460  0.08706023     0.10300
C962        C  0.86186831  0.21040273  0.13133514    -0.06800
C963        C  0.90877955  0.25909567  0.13755572    -0.18000
C964        C  0.91126478  0.30233928  0.11357878     0.10300
S965        S  0.77739879  0.14063495  0.06440519    -0.33000
S966        S  0.88092615  0.31508027  0.16939228    -0.33000
H967        H  0.92370469  0.33223874  0.20486656     0.28400
H968        H  0.79712235  0.11247398  0.08809991     0.28300
H969        H  0.82483152  0.23514726  0.01726142     0.18900
H970        H  0.93238892  0.26517996  0.17276119     0.18900
C971        C  0.91834574  0.33751374  0.50603678    -0.03200
C972        C  0.49038242  0.37871981  0.00036835    -0.03200
C973        C  0.52398516  0.45271395  0.50205108    -0.03200
C974        C  0.48118488  0.98371423  0.99840771    -0.03200
C975        C  0.90771531  0.43982323  0.49579839    -0.03200
C976        C  0.87826993  0.36833570  0.99978990    -0.03200
O977        O  0.68106054  0.24324689  0.81824308    -0.86100
O978        O  0.59094478  0.14895586  0.79434816    -0.83200
C979        C  0.55467879  0.14425744  0.82443463     0.97400
O980        O  0.53703311  0.17368198  0.81905731    -0.83200
O981        O  0.53983412  0.26316673  0.79791100    -0.85800
C982        C  0.57539514  0.29551936  0.83011298     1.01900
O983        O  0.62355499  0.31615318  0.81785102    -0.78600
O984        O  0.71376459  0.32164561  0.78719270    -0.78800
C985        C  0.71429886  0.29168380  0.82123165     1.01800
O986        O  0.70649122  0.25899217  0.70626024    -0.86100
O987        O  0.60907929  0.16846535  0.68607976    -0.83200
C988        C  0.55914540  0.13856482  0.68226844     0.97400
O989        O  0.52809942  0.14598201  0.71005544    -0.83200
O990        O  0.53932693  0.24006160  0.68160671    -0.85800
C991        C  0.56259324  0.28863809  0.67395422     1.01800
O992        O  0.59723044  0.31988524  0.70707014    -0.78600
O993        O  0.68243280  0.31189194  0.67830219    -0.78800
C994        C  0.71073815  0.29252002  0.67376678     1.01800
Cr995      Cr  0.64468693  0.20799026  0.75110440     1.93700
Cr996      Cr  0.54151865  0.20887223  0.75157932     1.93200
Cr997      Cr  0.65069065  0.31183603  0.74755162     1.39100
O998        O  0.61203480  0.24250297  0.74943118    -1.23900
O999        O  0.79004685  0.14398771  0.68336676    -0.86100
O1000       O  0.69072152  0.06178510  0.71236495    -0.83200
C1001       C  0.68487925  0.02827083  0.67874340     0.97400
O1002       O  0.71265808  0.00822267  0.68153722    -0.83200
O1003       O  0.79553102  0.99498736  0.70513188    -0.85800
C1004       C  0.83310988  0.02558538  0.67423985     1.01900
O1005       O  0.85841781  0.07420405  0.68331563    -0.78600
O1006       O  0.87054359  0.16864189  0.70863475    -0.78800
C1007       C  0.83960633  0.17073097  0.67570535     1.01800
O1008       O  0.81287763  0.17203493  0.79409127    -0.86100
O1009       O  0.71975959  0.08183820  0.81932680    -0.83200
C1010       C  0.68538287  0.03373856  0.82318008     0.97400
O1011       O  0.68486795  0.00104468  0.79115596    -0.83200
O1012       O  0.77316018  0.99790539  0.81663654    -0.85800
C1013       C  0.82180663  0.01491676  0.82321045     1.01800
O1014       O  0.85684763  0.05175462  0.79487783    -0.78600
O1015       O  0.86101905  0.14249235  0.82218676    -0.78800
C1016       C  0.84470131  0.17323229  0.82781453     1.01800
Cr1017     Cr  0.75615477  0.11227648  0.75208388     1.93700
Cr1018     Cr  0.74490406  0.00594755  0.74880703     1.93200
Cr1019     Cr  0.85631001  0.10689003  0.75243186     1.39100
O1020       O  0.78589337  0.07487834  0.75145276    -1.23900
C1021       C  0.83654312  0.34490973  0.55256206    -0.06900
C1022       C  0.78609502  0.29665854  0.55166493    -0.18000
C1023       C  0.74334782  0.28127219  0.58613426     0.10300
C1024       C  0.75105814  0.31021794  0.63180923    -0.06800
C1025       C  0.80195045  0.35157301  0.64219647    -0.18000
C1026       C  0.84406043  0.36709552  0.60560053     0.10300
S1027       S  0.68133206  0.22158999  0.57049696    -0.33000
S1028       S  0.90281271  0.41920688  0.63171991    -0.33000
H1029       H  0.92714654  0.41016242  0.58892177     0.28400
H1030       H  0.64816039  0.23011636  0.60292804     0.28300
H1031       H  0.77880534  0.26515576  0.52853833     0.18900
H1032       H  0.80904657  0.37258769  0.67936293     0.18900
C1033       C  0.83565035  0.33999510  0.94637072    -0.06900
C1034       C  0.84736237  0.35948608  0.89311502    -0.18000
C1035       C  0.80966087  0.34694543  0.85251203     0.10300
C1036       C  0.75554767  0.31241568  0.86309492    -0.06800
C1037       C  0.74213290  0.28940622  0.91263534    -0.18000
C1038       C  0.78246574  0.29252697  0.94394249     0.10300
S1039       S  0.83343468  0.37335294  0.78728333    -0.33000
S1040       S  0.77127451  0.22777333  0.93881160    -0.33000
H1041       H  0.72237456  0.20173196  0.46356190     0.28400
H1042       H  0.80072214  0.32575176  0.76042233     0.28300
H1043       H  0.88711088  0.38419846  0.88058113     0.18900
H1044       H  0.70115453  0.25816189  0.91952385     0.18900
C1045       C  0.87586174  0.44912797  0.94511688    -0.06900
C1046       C  0.89719862  0.96419809  0.89331229    -0.18000
C1047       C  0.88011645  0.98300207  0.85292665     0.10300
C1048       C  0.83834731  0.99019527  0.86264241    -0.06800
C1049       C  0.81171233  0.47134101  0.90764919    -0.18000
C1050       C  0.82315358  0.44379651  0.94439602     0.10300
S1051       S  0.91713022  0.00130908  0.79130234    -0.33000
S1052       S  0.75867851  0.39384107  0.97030874    -0.33000
H1053       H  0.77044659  0.35730545  0.48750457     0.28400
H1054       H  0.87217711  0.98162676  0.75850995     0.28300
H1055       H  0.93247885  0.96708747  0.88418045     0.18900
H1056       H  0.77632646  0.47290608  0.91265878     0.18900
C1057       C  0.88469491  0.46656586  0.53981590    -0.06900
C1058       C  0.83240892  0.44050431  0.56270011    -0.18000
C1059       C  0.81531014  0.46071432  0.60347171     0.10300
C1060       C  0.84711555  0.00360995  0.62730628    -0.06800
C1061       C  0.89541573  0.03318381  0.59946336    -0.18000
C1062       C  0.89761455  0.01642652  0.54712006     0.10300
S1063       S  0.74556550  0.42375762  0.62039738    -0.33000
S1064       S  0.86735137  0.04217218  0.50459250    -0.33000
H1065       H  0.88438698  0.08904581  0.53262608     0.28400
H1066       H  0.74051613  0.46687141  0.61365983     0.28300
H1067       H  0.80363025  0.40177663  0.55401417     0.18900
H1068       H  0.92191111  0.07382240  0.61031420     0.18900
C1069       C  0.50172818  0.03057929  0.54466872    -0.06900
C1070       C  0.50048299  0.01497522  0.59701275    -0.18000
C1071       C  0.51764635  0.04655779  0.64351849     0.10300
C1072       C  0.53681655  0.09943010  0.63932844    -0.06800
C1073       C  0.53783784  0.11865521  0.59071703    -0.18000
C1074       C  0.52227090  0.08829749  0.54418303     0.10300
S1075       S  0.01536857  0.02108573  0.70776368    -0.33000
S1076       S  0.53020384  0.13608858  0.49556074    -0.33000
H1077       H  0.54705518  0.16230735  0.99221500     0.28400
H1078       H  0.55530825  0.06440773  0.73277368     0.28300
H1079       H  0.99276687  0.97929145  0.60180059     0.18900
H1080       H  0.55140272  0.15988318  0.59045766     0.18900
C1081       C  0.50353103  0.02761485  0.95033413    -0.06900
C1082       C  0.47437753  0.05014375  0.93544315    -0.18000
C1083       C  0.48841907  0.08769293  0.89574997     0.10300
C1084       C  0.53465496  0.10401937  0.86623023    -0.06800
C1085       C  0.56569927  0.08408630  0.88095120    -0.18000
C1086       C  0.55744089  0.06208857  0.93151419     0.10300
S1087       S  0.94798992  0.10973707  0.88208205    -0.33000
S1088       S  0.61006837  0.10993125  0.97422578    -0.33000
H1089       H  0.65177427  0.12481948  0.93770752     0.28400
H1090       H  0.48607449  0.16414672  0.90302497     0.28300
H1091       H  0.94441872  0.03921324  0.95452220     0.18900
H1092       H  0.60417996  0.09956077  0.86214402     0.18900
C1093       C  0.56900130  0.47461220  0.55226790    -0.06900
C1094       C  0.59523535  0.02640076  0.57080842    -0.18000
C1095       C  0.63058156  0.04472953  0.61381512     0.10300
C1096       C  0.64489880  0.01180685  0.63660241    -0.06800
C1097       C  0.62766614  0.46818109  0.61890062    -0.18000
C1098       C  0.60321601  0.45524623  0.56929570     0.10300
S1099       S  0.65607099  0.11065271  0.63553945    -0.33000
S1100       S  0.63882084  0.43238759  0.53148777    -0.33000
H1101       H  0.64048869  0.39933711  0.56908954     0.28400
H1102       H  0.70815513  0.12417397  0.64307604     0.28300
H1103       H  0.59023553  0.05488000  0.55381137     0.18900
H1104       H  0.64150628  0.44478564  0.63587244     0.18900
C1105       C  0.56831069  0.47567396  0.95329422    -0.06900
C1106       C  0.62051964  0.01839768  0.95515514    -0.18000
C1107       C  0.65964262  0.03509498  0.91639669     0.10300
C1108       C  0.64536426  0.01549985  0.86538559    -0.06800
C1109       C  0.59665934  0.48569669  0.85773497    -0.18000
C1110       C  0.55677021  0.46736182  0.89723205     0.10300
S1111       S  0.72806521  0.08134697  0.93549593    -0.33000
S1112       S  0.49332533  0.43937103  0.86983580    -0.33000
H1113       H  0.46717101  0.41999613  0.91803110     0.28400
H1114       H  0.74903275  0.05572736  0.90748364     0.28300
H1115       H  0.63762278  0.04042793  0.99050081     0.18900
H1116       H  0.58539757  0.47881928  0.81613669     0.18900
C1117       C  0.51572305  0.36367989  0.94468211    -0.06900
C1118       C  0.57155523  0.38420628  0.93630553    -0.18000
C1119       C  0.59428935  0.36210466  0.90409474     0.10300
C1120       C  0.56062627  0.31280029  0.88008911    -0.06800
C1121       C  0.50716635  0.28867862  0.89458645    -0.18000
C1122       C  0.49078354  0.32396585  0.90311158     0.10300
S1123       S  0.66508984  0.40025745  0.89391196    -0.33000
S1124       S  0.98979634  0.34440778  0.83479682    -0.33000
H1125       H  0.97098496  0.29659728  0.80802164     0.28400
H1126       H  0.67042935  0.35723484  0.90030497     0.28300
H1127       H  0.60009157  0.42006200  0.94996605     0.18900
H1128       H  0.47928550  0.25147823  0.87602193     0.18900
C1129       C  0.54641102  0.31051705  0.62971847    -0.06900
C1130       C  0.53147892  0.34478628  0.64385978    -0.18000
C1131       C  0.51602469  0.36895157  0.60689536     0.11100
C1132       C  0.51227225  0.35856789  0.54905819    -0.06800
C1133       C  0.53119740  0.32426002  0.53714246    -0.18000
C1134       C  0.54798028  0.30155899  0.57513319     0.10300
S1135       S  0.50286165  0.41199984  0.64239208    -0.33000
S1136       S  0.57348310  0.26315611  0.55077621    -0.33000
H1137       H  0.61329270  0.28145582  0.58965712     0.28400
H1138       H  0.53893018  0.42700732  0.68485425     0.28300
H1139       H  0.53053532  0.35166045  0.68615372     0.18900
H1140       H  0.53049448  0.31028624  0.49782498     0.18900
C1141       C  0.86391713  0.21273116  0.87230256    -0.06900
C1142       C  0.87827052  0.20304133  0.92105276    -0.18000
C1143       C  0.89938361  0.24055285  0.96305089     0.10300
C1144       C  0.90119943  0.29072388  0.96041666    -0.06800
C1145       C  0.89087373  0.29835437  0.90827160    -0.18000
C1146       C  0.87080933  0.26169087  0.86612557     0.10300
S1147       S  0.92534965  0.21630287  0.01161655    -0.33000
S1148       S  0.86124708  0.28260232  0.80304785    -0.33000
H1149       H  0.88572307  0.26187081  0.77262813     0.28400
H1150       H  0.94184075  0.25380084  0.54939277     0.28300
H1151       H  0.87511462  0.16590130  0.92546004     0.18900
H1152       H  0.91227416  0.33758723  0.89733803     0.18900
C1153       C  0.89217438  0.29656160  0.55943548    -0.06900
C1154       C  0.84604580  0.24479183  0.55239517    -0.18000
C1155       C  0.83008641  0.20205100  0.58602413     0.10300
C1156       C  0.86091366  0.20816888  0.63068708    -0.06800
C1157       C  0.90785429  0.25673092  0.63729129    -0.18000
C1158       C  0.91069586  0.30024911  0.61351549     0.10300
S1159       S  0.77705086  0.13885468  0.56290268    -0.33000
S1160       S  0.88109878  0.31395284  0.66919215    -0.33000
H1161       H  0.92357470  0.32995674  0.70479256     0.28400
H1162       H  0.79513193  0.11003433  0.58827788     0.28300
H1163       H  0.82519822  0.23386830  0.51638982     0.18900
H1164       H  0.93111901  0.26251856  0.67268940     0.18900
C1165       C  0.92113514  0.83990712  0.00784322    -0.03200
C1166       C  0.49251594  0.88078731  0.50210951    -0.03200
C1167       C  0.52357144  0.95365800  0.00061346    -0.03200
C1168       C  0.48354403  0.48484577  0.49837521    -0.03200
C1169       C  0.90886959  0.94069468  0.99539950    -0.03200
C1170       C  0.87817544  0.86612225  0.50008787    -0.03200
O1171       O  0.68424224  0.74130912  0.31637163    -0.86100
O1172       O  0.59239428  0.64870419  0.29252287    -0.83200
C1173       C  0.55716508  0.64431197  0.32395543     0.97400
O1174       O  0.54101386  0.67521649  0.32121782    -0.83200
O1175       O  0.54578939  0.76679262  0.30399904    -0.85800
C1176       C  0.58193634  0.79928370  0.33579671     1.01900
O1177       O  0.62984848  0.81866120  0.32318889    -0.78600
O1178       O  0.71750254  0.82096900  0.28843253    -0.78800
C1179       C  0.71771497  0.78958956  0.32062731     1.01800
O1180       O  0.70745521  0.75918628  0.20490895    -0.86100
O1181       O  0.60793288  0.66990400  0.18455903    -0.83200
C1182       C  0.55776349  0.64054642  0.18252704     0.97400
O1183       O  0.52847072  0.64921663  0.21180245    -0.83200
O1184       O  0.54268696  0.74527571  0.18674445    -0.85800
C1185       C  0.56702031  0.79402686  0.17968910     1.01800
O1186       O  0.60186315  0.82433536  0.21315305    -0.78600
O1187       O  0.68559165  0.81495448  0.18111469    -0.78800
C1188       C  0.71296230  0.79473759  0.17470452     1.01800
Cr1189     Cr  0.64596200  0.70809096  0.24965622     1.93700
Cr1190     Cr  0.54488800  0.71223969  0.25532984     1.93200
Cr1191     Cr  0.65495144  0.81396690  0.25134292     1.39100
O1192       O  0.61507393  0.74441363  0.25158850    -1.23900
O1193       O  0.79222207  0.64855868  0.18711105    -0.86100
O1194       O  0.69274349  0.56641857  0.21674127    -0.83200
C1195       C  0.68742795  0.53428133  0.18159631     0.97400
O1196       O  0.71659499  0.51560807  0.18243476    -0.83200
O1197       O  0.79825879  0.49980025  0.20396531    -0.85800
C1198       C  0.83677493  0.53075042  0.17415692     1.01900
O1199       O  0.86227640  0.57908821  0.18418081    -0.78600
O1200       O  0.87313701  0.67227229  0.21066341    -0.78800
C1201       C  0.84175925  0.67481488  0.17861630     1.01800
O1202       O  0.81712794  0.67551846  0.29699970    -0.86100
O1203       O  0.72427785  0.58488276  0.32424799    -0.83200
C1204       C  0.68966291  0.53667857  0.32704770     0.97400
O1205       O  0.68834186  0.50497812  0.29291530    -0.83200
O1206       O  0.77574934  0.49976886  0.31549172    -0.85800
C1207       C  0.82430190  0.51664830  0.32249543     1.01800
O1208       O  0.85984992  0.55441274  0.29532787    -0.78600
O1209       O  0.86483110  0.64499240  0.32372021    -0.78800
C1210       C  0.84938633  0.67627619  0.32972411     1.01800
Cr1211     Cr  0.75935100  0.61618856  0.25601563     1.93700
Cr1212     Cr  0.74794803  0.51027249  0.24889643     1.93200
Cr1213     Cr  0.85962050  0.61037581  0.25373208     1.39100
O1214       O  0.78921173  0.57881309  0.25328590    -1.23900
C1215       C  0.83838074  0.84646655  0.05329750    -0.06900
C1216       C  0.78716545  0.79909210  0.05207316    -0.18000
C1217       C  0.74494646  0.78409271  0.08691508     0.10300
C1218       C  0.75313322  0.81290425  0.13266964    -0.06800
C1219       C  0.80441814  0.85338062  0.14332775    -0.18000
C1220       C  0.84633323  0.86840803  0.10661280     0.10300
S1221       S  0.68332356  0.72391496  0.07233309    -0.33000
S1222       S  0.90502834  0.92098104  0.13201863    -0.33000
H1223       H  0.92888841  0.90792358  0.09199908     0.28400
H1224       H  0.64984498  0.73204739  0.10462721     0.28300
H1225       H  0.77869405  0.76700105  0.02928428     0.18900
H1226       H  0.81183839  0.87427553  0.18062091     0.18900
C1227       C  0.83728386  0.83716531  0.44606446    -0.06900
C1228       C  0.84935638  0.85779814  0.39343891    -0.18000
C1229       C  0.81230824  0.84503212  0.35244095     0.10300
C1230       C  0.75849480  0.80891864  0.36226077    -0.06800
C1231       C  0.74491238  0.78423858  0.41086329    -0.18000
C1232       C  0.78550005  0.78840211  0.44228691     0.10300
S1233       S  0.83667254  0.87351370  0.28798174    -0.33000
S1234       S  0.77679801  0.72464707  0.43777057    -0.33000
H1235       H  0.72466565  0.70013467  0.96223716     0.28400
H1236       H  0.80522332  0.82634641  0.25994834     0.28300
H1237       H  0.88873672  0.88385152  0.38184996     0.18900
H1238       H  0.70431944  0.75178869  0.41678282     0.18900
C1239       C  0.87478819  0.94653781  0.44360854    -0.06900
C1240       C  0.89854927  0.46502585  0.39352720    -0.18000
C1241       C  0.88219123  0.48433075  0.35281853     0.10300
C1242       C  0.83994255  0.49093777  0.36164445    -0.06800
C1243       C  0.80990549  0.96655437  0.40409228    -0.18000
C1244       C  0.82139571  0.93911132  0.44101260     0.10300
S1245       S  0.92005194  0.50303997  0.29159816    -0.33000
S1246       S  0.75815439  0.88971108  0.46894676    -0.33000
H1247       H  0.77172896  0.85693470  0.98650134     0.28400
H1248       H  0.87573431  0.48481686  0.25814218     0.28300
H1249       H  0.93358096  0.46749119  0.38484139     0.18900
H1250       H  0.77452369  0.96783347  0.40903984     0.18900
C1251       C  0.88618927  0.96721961  0.03952260    -0.06900
C1252       C  0.83374495  0.94092288  0.06190244    -0.18000
C1253       C  0.81636622  0.96107924  0.10222649     0.10300
C1254       C  0.85152741  0.50946774  0.12727452    -0.06800
C1255       C  0.90096001  0.53856689  0.10124095    -0.18000
C1256       C  0.90527135  0.52235948  0.04922628     0.10300
S1257       S  0.74626550  0.92505150  0.11747600    -0.33000
S1258       S  0.88173455  0.55396215  0.00646535    -0.33000
H1259       H  0.91865801  0.60493206  0.02472568     0.28400
H1260       H  0.74276796  0.96874954  0.10846831     0.28300
H1261       H  0.80507139  0.90223918  0.05299610     0.18900
H1262       H  0.92725192  0.57898868  0.11291180     0.18900
C1263       C  0.50098771  0.52987107  0.04662092    -0.06900
C1264       C  0.49937047  0.51505297  0.09961235    -0.18000
C1265       C  0.51638399  0.54754792  0.14546370     0.10300
C1266       C  0.53287369  0.59987929  0.14075369    -0.06800
C1267       C  0.53215124  0.61762454  0.09175669    -0.18000
C1268       C  0.52207704  0.58781185  0.04527513     0.10300
S1269       S  0.01934246  0.52024496  0.20669719    -0.33000
S1270       S  0.54234415  0.63776151  0.99458282    -0.33000
H1271       H  0.58707977  0.67506479  0.51001730     0.28400
H1272       H  0.52696071  0.56035858  0.24080875     0.28300
H1273       H  0.99697007  0.48056768  0.10217907     0.18900
H1274       H  0.54335096  0.65816653  0.09059566     0.18900
C1275       C  0.50668819  0.52772172  0.44971077    -0.06900
C1276       C  0.47716113  0.54943716  0.43414089    -0.18000
C1277       C  0.48983226  0.58521408  0.39289702     0.10300
C1278       C  0.53683291  0.60290287  0.36441673    -0.06800
C1279       C  0.56944214  0.58519615  0.38024476    -0.18000
C1280       C  0.56080497  0.56163707  0.43011309     0.10300
S1281       S  0.94817630  0.61016422  0.38572568    -0.33000
S1282       S  0.61767842  0.60274592  0.47211284    -0.33000
H1283       H  0.65727608  0.61791313  0.43300881     0.28400
H1284       H  0.48737894  0.66145998  0.40444198     0.28300
H1285       H  0.94482820  0.53937558  0.45796125     0.18900
H1286       H  0.60828037  0.60216620  0.36182018     0.18900
C1287       C  0.57163214  0.97722642  0.04763911    -0.06900
C1288       C  0.59342532  0.52516053  0.07320729    -0.18000
C1289       C  0.62966307  0.54639622  0.11592079     0.10300
C1290       C  0.64559593  0.51589306  0.14078305    -0.06800
C1291       C  0.62968997  0.96629888  0.10893740    -0.18000
C1292       C  0.60840089  0.95920010  0.05800755     0.10300
S1293       S  0.65432258  0.61285057  0.13468412    -0.33000
S1294       S  0.67063431  0.97851080  0.02328289    -0.33000
H1295       H  0.66721642  0.93106896  0.03295919     0.28400
H1296       H  0.70533675  0.62703199  0.14969399     0.28300
H1297       H  0.58858469  0.55287903  0.05435411     0.18900
H1298       H  0.64421880  0.94198653  0.12177792     0.18900
C1299       C  0.56676108  0.97608247  0.44851402    -0.06900
C1300       C  0.62530290  0.51133875  0.46182826    -0.18000
C1301       C  0.66445646  0.52941694  0.42257482     0.10300
C1302       C  0.64972621  0.51695528  0.36983254    -0.06800
C1303       C  0.59380687  0.98047346  0.35302702    -0.18000
C1304       C  0.55440529  0.96445032  0.39290491     0.10300
S1305       S  0.73341972  0.56849938  0.44314438    -0.33000
S1306       S  0.49105319  0.93728656  0.36607862    -0.33000
H1307       H  0.46744281  0.92217046  0.41595892     0.28400
H1308       H  0.75260245  0.54756375  0.40570704     0.28300
H1309       H  0.64409009  0.52630354  0.49928171     0.18900
H1310       H  0.58211639  0.97025755  0.31178245     0.18900
C1311       C  0.51883037  0.86560426  0.44828440    -0.06900
C1312       C  0.57494593  0.88724628  0.44337170    -0.18000
C1313       C  0.59943721  0.86748965  0.40967505     0.10300
C1314       C  0.56736226  0.81733910  0.38578420    -0.06800
C1315       C  0.51381934  0.79161577  0.40046370    -0.18000
C1316       C  0.49544388  0.82542478  0.40714933     0.10300
S1317       S  0.66884626  0.90946802  0.39616017    -0.33000
S1318       S  0.99713709  0.84491805  0.33894437    -0.33000
H1319       H  0.97668757  0.79564259  0.31482373     0.28400
H1320       H  0.67843912  0.86902309  0.39903671     0.28300
H1321       H  0.59996554  0.91988585  0.46508250     0.18900
H1322       H  0.48689696  0.75356426  0.38297790     0.18900
C1323       C  0.55242812  0.81697544  0.13504485    -0.06900
C1324       C  0.53881025  0.85249220  0.14811986    -0.18000
C1325       C  0.52294029  0.87590191  0.11034001     0.11100
C1326       C  0.51681882  0.86292965  0.05290748    -0.06800
C1327       C  0.53640778  0.82885295  0.04223369    -0.18000
C1328       C  0.55327810  0.80675064  0.08075411     0.10300
S1329       S  0.51165731  0.92057571  0.14470809    -0.33000
S1330       S  0.57570156  0.76533652  0.05756684    -0.33000
H1331       H  0.61601034  0.78360958  0.09586226     0.28400
H1332       H  0.54915168  0.93687891  0.18601908     0.28300
H1333       H  0.53913219  0.86088810  0.19019627     0.18900
H1334       H  0.53401854  0.81266275  0.00373250     0.18900
C1335       C  0.86990603  0.71574093  0.37358673    -0.06900
C1336       C  0.88285749  0.70507628  0.42256356    -0.18000
C1337       C  0.90280578  0.74188271  0.46501115     0.10300
C1338       C  0.90523428  0.79217055  0.46195167    -0.06800
C1339       C  0.89725076  0.80102842  0.40943431    -0.18000
C1340       C  0.87807281  0.76507583  0.36696012     0.10300
S1341       S  0.92786827  0.71762362  0.51436117    -0.33000
S1342       S  0.87087934  0.78706630  0.30335570    -0.33000
H1343       H  0.89361139  0.76423406  0.27350569     0.28400
H1344       H  0.94589697  0.75800080  0.04972584     0.28300
H1345       H  0.87904856  0.66764829  0.42704053     0.18900
H1346       H  0.91803810  0.84033176  0.39926813     0.18900
C1347       C  0.89613150  0.80056923  0.06200057    -0.06900
C1348       C  0.84864982  0.74999074  0.05605247    -0.18000
C1349       C  0.83121545  0.70742725  0.09013755     0.10300
C1350       C  0.86284130  0.71221436  0.13357697    -0.06800
C1351       C  0.91185500  0.75923833  0.13836453    -0.18000
C1352       C  0.91694285  0.80389404  0.11489849     0.10300
S1353       S  0.77532465  0.64542256  0.06821789    -0.33000
S1354       S  0.89262503  0.82184729  0.17185932    -0.33000
H1355       H  0.93525922  0.83420755  0.20602389     0.28400
H1356       H  0.79327457  0.61512901  0.09040181     0.28300
H1357       H  0.82799212  0.73965409  0.02018164     0.18900
H1358       H  0.93635793  0.76399627  0.17236866     0.18900
C1359       C  0.92057919  0.83892268  0.50726250    -0.03200
C1360       C  0.49297874  0.88201731  0.00260175    -0.03200
C1361       C  0.52478721  0.95268535  0.49981670    -0.03200
C1362       C  0.48358636  0.48334130  0.99889425    -0.03200
C1363       C  0.90551594  0.93800961  0.49546413    -0.03200
C1364       C  0.87996777  0.86849639  0.00068533    -0.03200
O1365       O  0.68208059  0.74067526  0.81927069    -0.86100
O1366       O  0.59019007  0.64750696  0.79432773    -0.83200
C1367       C  0.55478865  0.64284857  0.82551196     0.97400
O1368       O  0.53882366  0.67387571  0.82295959    -0.83200
O1369       O  0.54520940  0.76612754  0.80608969    -0.85800
C1370       C  0.58223438  0.80032885  0.83618852     1.01900
O1371       O  0.62988934  0.82043703  0.82186813    -0.78600
O1372       O  0.71627417  0.81952273  0.78848306    -0.78800
C1373       C  0.71609246  0.78900940  0.82227289     1.01800
O1374       O  0.70652427  0.75674407  0.70757946    -0.86100
O1375       O  0.60694260  0.66858675  0.68706687    -0.83200
C1376       C  0.55681533  0.63975573  0.68395924     0.97400
O1377       O  0.52704296  0.64824794  0.71285864    -0.83200
O1378       O  0.54014453  0.74359847  0.68830891    -0.85800
C1379       C  0.56521268  0.79207834  0.67952735     1.01800
O1380       O  0.60145704  0.82304173  0.71140812    -0.78600
O1381       O  0.68297366  0.80995724  0.68010887    -0.78800
C1382       C  0.71066852  0.78995765  0.67489641     1.01800
Cr1383     Cr  0.64430692  0.70670649  0.75220997     1.93700
Cr1384     Cr  0.54322250  0.71111980  0.75697511     1.93200
Cr1385     Cr  0.65391627  0.81248963  0.75045567     1.39100
O1386       O  0.61344420  0.74309183  0.75295181    -1.23900
O1387       O  0.79257819  0.64854193  0.68742367    -0.86100
O1388       O  0.69324107  0.56608032  0.71700735    -0.83200
C1389       C  0.68823205  0.53457872  0.68124056     0.97400
O1390       O  0.71759918  0.51609921  0.68161074    -0.83200
O1391       O  0.79921995  0.50011624  0.70326163    -0.85800
C1392       C  0.83764763  0.53106801  0.67353257     1.01900
O1393       O  0.86334773  0.57939456  0.68386242    -0.78600
O1394       O  0.87361049  0.67221822  0.71052082    -0.78800
C1395       C  0.84206560  0.67430262  0.67834316     1.01800
O1396       O  0.81725387  0.67519985  0.79754032    -0.86100
O1397       O  0.72490076  0.58356242  0.82486043    -0.83200
C1398       C  0.69046554  0.53520606  0.82715212     0.97400
O1399       O  0.68906986  0.50418760  0.79213764    -0.83200
O1400       O  0.77666929  0.49937496  0.81430147    -0.85800
C1401       C  0.82527218  0.51676933  0.82180857     1.01800
O1402       O  0.86094096  0.55483543  0.79508982    -0.78600
O1403       O  0.86564420  0.64538417  0.82393342    -0.78800
C1404       C  0.84959677  0.67621467  0.83029626     1.01800
Cr1405     Cr  0.75978828  0.61574197  0.75644511     1.93700
Cr1406     Cr  0.74887312  0.51023606  0.74803212     1.93200
Cr1407     Cr  0.86049048  0.61063054  0.75362544     1.39100
O1408       O  0.79002245  0.57875762  0.75311520    -1.23900
C1409       C  0.83591819  0.84256318  0.55228053    -0.06900
C1410       C  0.78427071  0.79540535  0.55029121    -0.18000
C1411       C  0.74200389  0.77987930  0.58552131     0.10300
C1412       C  0.75079858  0.80722030  0.63260523    -0.06800
C1413       C  0.80229867  0.84695566  0.64347745    -0.18000
C1414       C  0.84389902  0.86321918  0.60611323     0.10300
S1415       S  0.67947822  0.72128831  0.56908848    -0.33000
S1416       S  0.90175046  0.91688217  0.63123284    -0.33000
H1417       H  0.92701667  0.90632297  0.59047153     0.28400
H1418       H  0.64714185  0.72799589  0.60462228     0.28300
H1419       H  0.77560519  0.76346074  0.52705334     0.18900
H1420       H  0.80989336  0.86716868  0.68117854     0.18900
C1421       C  0.83773036  0.83906266  0.94718585    -0.06900
C1422       C  0.84906069  0.85849095  0.89401202    -0.18000
C1423       C  0.81134082  0.84484379  0.85326881     0.10300
C1424       C  0.75744700  0.80937562  0.86382895    -0.06800
C1425       C  0.74443750  0.78637785  0.91329402    -0.18000
C1426       C  0.78536186  0.79056788  0.94436597     0.10300
S1427       S  0.83488019  0.87109742  0.78800563    -0.33000
S1428       S  0.77597807  0.72649133  0.93969664    -0.33000
H1429       H  0.72625749  0.69870974  0.46177315     0.28400
H1430       H  0.80328996  0.82286487  0.76178267     0.28300
H1431       H  0.88845847  0.88391643  0.88157850     0.18900
H1432       H  0.70373035  0.75458230  0.92022103     0.18900
C1433       C  0.87538323  0.94811077  0.94508046    -0.06900
C1434       C  0.89894052  0.46536142  0.89375683    -0.18000
C1435       C  0.88296178  0.48462506  0.85279703     0.10300
C1436       C  0.84082808  0.49143252  0.86128590    -0.06800
C1437       C  0.81104730  0.97131536  0.91016740    -0.18000
C1438       C  0.82280282  0.94306963  0.94571871     0.10300
S1439       S  0.92113648  0.50305453  0.79183561    -0.33000
S1440       S  0.75846838  0.89134937  0.97012522    -0.33000
H1441       H  0.77135328  0.85495571  0.48417047     0.28400
H1442       H  0.87721903  0.48546738  0.75799769     0.28300
H1443       H  0.93398450  0.46760649  0.88547037     0.18900
H1444       H  0.77664260  0.97409884  0.91706061     0.18900
C1445       C  0.88011151  0.96212532  0.53955426    -0.06900
C1446       C  0.82798492  0.93448235  0.56341430    -0.18000
C1447       C  0.81074836  0.95428046  0.60473088     0.10300
C1448       C  0.85193535  0.50951399  0.62654614    -0.06800
C1449       C  0.90069426  0.53877920  0.59956275    -0.18000
C1450       C  0.90469695  0.52169631  0.54793104     0.10300
S1451       S  0.74120687  0.91681320  0.62215633    -0.33000
S1452       S  0.88093485  0.55269824  0.50461649    -0.33000
H1453       H  0.91978460  0.60398398  0.52038717     0.28400
H1454       H  0.73584145  0.95971915  0.61598419     0.28300
H1455       H  0.79928320  0.89548224  0.55472975     0.18900
H1456       H  0.92618458  0.57960220  0.61014942     0.18900
C1457       C  0.50065539  0.53101427  0.54628689    -0.06900
C1458       C  0.49892561  0.51564586  0.59900344    -0.18000
C1459       C  0.51522719  0.54734635  0.64536455     0.10300
C1460       C  0.53296204  0.60001052  0.64126743    -0.06800
C1461       C  0.53442359  0.61893574  0.59225356    -0.18000
C1462       C  0.52151876  0.58886933  0.54551955     0.10300
S1463       S  0.02181307  0.52101705  0.70658790    -0.33000
S1464       S  0.53458234  0.63748132  0.49550995    -0.33000
H1465       H  0.59299041  0.67404687  0.01447166     0.28400
H1466       H  0.52872042  0.56018237  0.74087275     0.28300
H1467       H  0.99662632  0.47994768  0.60295516     0.18900
H1468       H  0.54745489  0.65999866  0.59158727     0.18900
C1469       C  0.50610938  0.52603457  0.95032234    -0.06900
C1470       C  0.47679639  0.54864665  0.93659347    -0.18000
C1471       C  0.48861169  0.58430273  0.89551791     0.10300
C1472       C  0.53453709  0.60110097  0.86549177    -0.06800
C1473       C  0.56662238  0.58206738  0.87910661    -0.18000
C1474       C  0.55951617  0.55855545  0.92866215     0.10300
S1475       S  0.94778700  0.61138271  0.88688094    -0.33000
S1476       S  0.61877288  0.59851130  0.96836570    -0.33000
H1477       H  0.65683978  0.61418919  0.92748870     0.28400
H1478       H  0.48722888  0.66079506  0.90885055     0.28300
H1479       H  0.94463463  0.54020244  0.95819758     0.18900
H1480       H  0.60453463  0.59783175  0.85905169     0.18900
C1481       C  0.57161811  0.97565085  0.54780510    -0.06900
C1482       C  0.59335544  0.52634725  0.57418583    -0.18000
C1483       C  0.63000982  0.54724450  0.61660680     0.10300
C1484       C  0.64642781  0.51664422  0.64036057    -0.06800
C1485       C  0.62570261  0.96352956  0.61285958    -0.18000
C1486       C  0.60610020  0.95580868  0.56123621     0.10300
S1487       S  0.65490884  0.61358127  0.63620047    -0.33000
S1488       S  0.66782014  0.97042806  0.52854189    -0.33000
H1489       H  0.66002795  0.92137335  0.53991695     0.28400
H1490       H  0.70618727  0.62756311  0.64991776     0.28300
H1491       H  0.58821863  0.55423607  0.55630616     0.18900
H1492       H  0.63857015  0.93852174  0.62784757     0.18900
C1493       C  0.56475163  0.97807499  0.94912512    -0.06900
C1494       C  0.62592567  0.50755463  0.96217745    -0.18000
C1495       C  0.66519097  0.52441486  0.92304746     0.10300
C1496       C  0.65053257  0.51442673  0.87007293    -0.06800
C1497       C  0.59174893  0.98139251  0.85409857    -0.18000
C1498       C  0.55238718  0.96512135  0.89387400     0.10300
S1499       S  0.73404777  0.55822546  0.94416283    -0.33000
S1500       S  0.48882775  0.93483276  0.86736307    -0.33000
H1501       H  0.46568759  0.92086577  0.91757790     0.28400
H1502       H  0.75194529  0.53968049  0.90286760     0.28300
H1503       H  0.64478308  0.52203937  0.99970211     0.18900
H1504       H  0.58017108  0.96928270  0.81314085     0.18900
C1505       C  0.51950946  0.86714611  0.94876341    -0.06900
C1506       C  0.57578134  0.88985104  0.94283449    -0.18000
C1507       C  0.60045518  0.87001740  0.90923429     0.10300
C1508       C  0.56864039  0.81911665  0.88653360    -0.06800
C1509       C  0.51541749  0.79279752  0.90271680    -0.18000
C1510       C  0.49601592  0.82580462  0.90882075     0.10300
S1511       S  0.66971668  0.91262891  0.89460558    -0.33000
S1512       S  0.99757706  0.84786536  0.83881710    -0.33000
H1513       H  0.97829645  0.79984548  0.81242331     0.28400
H1514       H  0.68037296  0.87284630  0.89660664     0.28300
H1515       H  0.60080817  0.92392481  0.96272317     0.18900
H1516       H  0.48856024  0.75403000  0.88669040     0.18900
C1517       C  0.54986277  0.81417050  0.63473464    -0.06900
C1518       C  0.53416975  0.84809646  0.64776992    -0.18000
C1519       C  0.51899967  0.87181490  0.60971710     0.11100
C1520       C  0.51487214  0.86028137  0.55226946    -0.06800
C1521       C  0.53508962  0.82669952  0.54170770    -0.18000
C1522       C  0.55259212  0.80527827  0.58037172     0.10300
S1523       S  0.50603469  0.91545396  0.64335671    -0.33000
S1524       S  0.57848421  0.76677497  0.55718310    -0.33000
H1525       H  0.61721707  0.78452884  0.59708817     0.28400
H1526       H  0.54235214  0.93136600  0.68572916     0.28300
H1527       H  0.53275887  0.85538051  0.68989360     0.18900
H1528       H  0.53351049  0.81094925  0.50311469     0.18900
C1529       C  0.86948588  0.71564721  0.87445612    -0.06900
C1530       C  0.88192950  0.70504636  0.92373982    -0.18000
C1531       C  0.90210164  0.74212450  0.96602831     0.10300
C1532       C  0.90485498  0.79261879  0.96271837    -0.06800
C1533       C  0.89631322  0.80107314  0.91018651    -0.18000
C1534       C  0.87755739  0.76498348  0.86771992     0.10300
S1535       S  0.92614817  0.71730507  0.01593473    -0.33000
S1536       S  0.87110934  0.78692700  0.80380947    -0.33000
H1537       H  0.89388477  0.76385956  0.77443559     0.28400
H1538       H  0.94747576  0.75854494  0.54771425     0.28300
H1539       H  0.87781124  0.66750636  0.92848635     0.18900
H1540       H  0.91734830  0.84044008  0.89979669     0.18900
C1541       C  0.89596480  0.79919567  0.56114383    -0.06900
C1542       C  0.84846242  0.74856294  0.55513225    -0.18000
C1543       C  0.83131899  0.70590100  0.58917025     0.10300
C1544       C  0.86313326  0.71079854  0.63247923    -0.06800
C1545       C  0.91247390  0.75753510  0.63653480    -0.18000
C1546       C  0.91730076  0.80227112  0.61369664     0.10300
S1547       S  0.77537623  0.64371389  0.56783188    -0.33000
S1548       S  0.89336427  0.81973203  0.67139743    -0.33000
H1549       H  0.93613144  0.83172571  0.70516764     0.28400
H1550       H  0.79348397  0.61367532  0.59038199     0.28300
H1551       H  0.82755760  0.73856437  0.51942983     0.18900
H1552       H  0.93743402  0.76221110  0.67008326     0.18900
loop_ 
_geom_bond_atom_site_label_1 
_geom_bond_atom_site_label_2 
_geom_bond_distance 
_geom_bond_site_symmetry_2 
_ccdc_geom_bond_type 
C1          C183   1.710       .  S
C1          C368   1.682   1_554  S
C1          C972   1.830       .  S
C1          C200   1.849   1_554  S
C2          C147   1.755   1_655  S
C2          C356   1.688   1_655  S
C2          C971   1.831       .  S
C2          C197   1.861   1_655  S
C3          C123   1.696       .  S
C3          C329   1.658   1_554  S
C3          C196   1.863   1_455  S
C3          C586   1.913   1_454  S
C4          C111   1.657   1_665  S
C4          C293   1.689   1_565  S
C4          C585   1.910   1_655  S
C4         C1363   1.902       .  S
C5           C87   1.705   1_556  S
C5          C269   1.702       .  S
C5         C1362   1.917       .  S
C5          C200   1.886       .  S
C6           C63   1.729       .  S
C6          C245   1.679       .  S
C6          C195   1.850       .  S
C6          C199   1.885       .  S
O7          Cr25   1.980       .  S
O7           C15   1.260       .  A
O8          Cr25   1.976       .  S
O8            C9   1.256       .  A
C9           O10   1.261       .  A
C9          C114   1.478       .  S
O10         Cr26   1.979       .  S
O11         Cr26   2.030       .  S
O11          C12   1.275       .  A
C12          O13   1.253       .  A
C12         C150   1.505       .  S
O13         Cr27   1.966       .  S
O14         Cr27   2.001       .  S
O14          C15   1.262       .  A
C15          C66   1.478       .  S
O16         Cr25   2.002       .  S
O16          C24   1.264       .  A
O17         Cr25   1.962       .  S
O17          C18   1.263       .  A
C18          O19   1.263       .  A
C18         C102   1.465       .  S
O19         Cr26   2.008       .  S
O20         Cr26   2.027       .  S
O20          C21   1.266       .  A
C21          O22   1.267       .  A
C21         C159   1.510       .  S
O22         Cr27   2.015       .  S
O23         Cr27   1.973       .  S
O23          C24   1.260       .  A
C24          C54   1.463       .  S
Cr25         O28   1.766       .  S
Cr26         O28   1.772       .  S
Cr27         O28   1.775       .  S
O29         Cr47   1.976       .  S
O29          C37   1.260       .  A
O30         Cr47   1.986       .  S
O30          C31   1.254       .  A
C31          O32   1.262       .  A
C31         C126   1.472       .  S
O32         Cr48   1.975       .  S
O33         Cr48   2.016   1_565  S
O33          C34   1.267   1_565  A
C34          O35   1.265       .  A
C34          C90   1.507       .  S
O35         Cr49   2.006       .  S
O36         Cr49   2.022       .  S
O36          C37   1.270       .  A
C37         C186   1.489       .  S
O38         Cr47   1.992       .  S
O38          C46   1.261       .  A
O39         Cr47   1.964       .  S
O39          C40   1.263       .  A
C40          O41   1.266       .  A
C40         C138   1.471       .  S
O41         Cr48   2.013       .  S
O42         Cr48   1.975       .  S
O42          C43   1.259       .  A
C43          O44   1.267       .  A
C43          C78   1.482   1_545  S
O44         Cr49   2.002       .  S
O45         Cr49   2.011       .  S
O45          C46   1.265       .  A
C46         C171   1.501       .  S
Cr47         O50   1.768       .  S
Cr48         O50   1.769       .  S
Cr49         O50   1.776       .  S
C51         C200   1.684   1_554  S
C51          C52   1.430       .  A
C51          C56   1.453       .  A
C52          C53   1.392       .  A
C52          H61   1.030       .  S
C53          C54   1.381       .  A
C53          S57   1.806       .  S
C54          C55   1.379       .  A
C55          C56   1.413       .  A
C55          H62   1.082       .  S
C56          S58   1.741       .  S
S57          H60   1.399       .  S
S58          H59   1.396       .  S
C63          C64   1.434       .  A
C63          C68   1.463       .  A
C64          C65   1.414       .  A
C64          H73   1.053       .  S
C65          C66   1.398       .  A
C65          S69   1.800       .  S
C66          C67   1.383       .  A
C67          C68   1.398       .  A
C67          H74   1.086       .  S
C68          S70   1.809       .  S
S69          H72   1.405       .  S
S70         H265   1.404       .  S
H71         S264   1.404       .  S
C75         C199   1.704       .  S
C75          C80   1.488       .  A
C75         C464   1.423       .  A
C76          C77   1.396       .  A
C76         C463   1.424       .  A
C76          H85   1.022       .  S
C77          C78   1.387       .  A
C77          S81   1.806   1_565  S
C78         C467   1.385       .  A
C79          C80   1.414       .  A
C79         C466   1.384       .  A
C79          H86   1.083       .  S
C80          S82   1.815       .  S
S81          H84   1.406   1_545  S
S82         H277   1.368       .  S
H83         S276   1.368       .  S
C87          C88   1.434       .  A
C87         C480   1.455       .  A
C88          C89   1.413       .  A
C88          H97   1.041       .  S
C89         C478   1.409       .  A
C89          S93   1.802       .  S
C90          C91   1.405       .  A
C90         C477   1.410   1_545  A
C91          C92   1.419       .  A
C91          H98   1.083       .  S
C92         C475   1.448   1_545  A
C92          S94   1.830       .  S
S93          H96   1.405       .  S
S94          H95   1.410       .  S
C99         C198   1.686   1_444  S
C99         C100   1.396       .  A
C99         C104   1.512       .  A
C100        C101   1.416       .  A
C100        H885   1.021   1_445  S
C101        C102   1.389       .  A
C101        S881   1.804       .  S
C102        C103   1.355       .  A
C103        C104   1.399       .  A
C103        H110   1.089       .  S
C104        S106   1.823   1_554  S
S105        C877   1.800       .  S
S105        H884   1.404       .  S
S106        H301   1.409   1_556  S
H107        S300   1.410   1_455  S
H108        S881   1.402       .  S
H109        C876   1.016   1_565  S
C111        C112   1.412   1_455  A
C111        C116   1.445       .  A
C112        C113   1.406       .  A
C112        H897   1.044       .  S
C113        C114   1.396   1_655  A
C113        S893   1.806       .  S
C114        C115   1.399       .  A
C115        C116   1.401       .  A
C115        H122   1.084       .  S
C116        S118   1.811       .  S
S117        C889   1.808       .  S
S117        H896   1.408       .  S
S118        H119   1.405       .  S
H120        S893   1.407       .  S
H121        C888   1.035       .  S
C123        C128   1.486       .  A
C123        C512   1.436       .  A
C124        C125   1.403       .  A
C124        C511   1.425   1_545  A
C124        H133   1.047       .  S
C125        C126   1.406       .  A
C125        S129   1.798       .  S
C126        C515   1.385   1_545  A
C127        C128   1.392       .  A
C127        C514   1.369       .  A
C127        H134   1.084       .  S
C128        S130   1.806       .  S
S129        H132   1.387       .  S
S130        H131   1.407       .  S
C135        C197   1.658       .  S
C135        C140   1.443       .  A
C135        C524   1.465       .  A
C136        C137   1.391       .  A
C136        C523   1.450   1_545  A
C136        H145   1.062       .  S
C137        C138   1.382       .  A
C137        S141   1.811       .  S
C138        C527   1.391   1_545  A
C139        C140   1.411       .  A
C139        C526   1.389       .  A
C139        H146   1.085       .  S
C140        S142   1.747   1_455  S
S141        H144   1.408       .  S
S142        H143   1.390       .  S
C147        C148   1.446       .  A
C147        C152   1.456   1_455  A
C148        C149   1.424       .  A
C148        H157   1.018       .  S
C149        C150   1.414       .  A
C149        S153   1.799       .  S
C150        C151   1.395       .  A
C151        C152   1.406   1_455  A
C151        H158   1.083   1_455  S
C152        S930   1.840       .  S
S153        H156   1.405       .  S
S154        C928   1.840       .  S
S154        H155   1.409       .  S
C159        C160   1.373       .  A
C159        C164   1.402       .  A
C160        C161   1.413       .  A
C160        H169   1.085       .  S
C161        C162   1.477       .  A
C161        S165   1.781       .  S
C162        C196   1.690   1_455  S
C162        C163   1.451       .  A
C163        C164   1.424       .  A
C163        H170   1.068   1_554  S
C164        S166   1.794       .  S
S165        H168   1.409       .  S
S166        H167   1.404       .  S
C171        C172   1.386       .  A
C171        C176   1.396       .  A
C172        C173   1.420       .  A
C172        H181   1.086       .  S
C173        C174   1.493       .  A
C173        S177   1.808       .  S
C174        C195   1.678       .  S
C174        C175   1.402       .  A
C175        C176   1.411       .  A
C175        H182   1.044       .  S
C176        S178   1.796       .  S
S177        H374   1.345       .  S
S178        H179   1.405       .  S
H180        S371   1.345       .  S
C183        C184   1.439       .  A
C183        C188   1.450       .  A
C184        C185   1.407       .  A
C184        H193   1.047       .  S
C185        C186   1.403       .  A
C185        S189   1.804       .  S
C186        C187   1.395       .  A
C187        C188   1.414       .  A
C187        H194   1.086       .  S
C188        S190   1.805       .  S
S189        H192   1.408       .  S
S190        H191   1.410       .  S
C195        C377   1.716       .  S
C195        C778   1.831       .  S
C196        C341   1.755   1_654  S
C196        C777   1.830       .  S
C197        C317   1.695       .  S
C197        C392   1.911   1_455  S
C198        C305   1.651   1_665  S
C198        C391   1.906   1_656  S
C198       C1169   1.914       .  S
C199        C281   1.698       .  S
C199       C1168   1.916       .  S
C200        C257   1.726       .  S
O201       Cr219   1.977       .  S
O201        C209   1.261       .  A
O202       Cr219   1.978       .  S
O202        C203   1.256       .  A
C203        O204   1.261       .  A
C203        C308   1.479       .  S
O204       Cr220   1.979       .  S
O205       Cr220   2.036       .  S
O205        C206   1.276       .  A
C206        O207   1.255       .  A
C206        C344   1.509       .  S
O207       Cr221   1.969       .  S
O208       Cr221   2.004       .  S
O208        C209   1.263       .  A
C209        C260   1.477       .  S
O210       Cr219   1.995       .  S
O210        C218   1.262       .  A
O211       Cr219   1.960       .  S
O211        C212   1.261       .  A
C212        O213   1.265       .  A
C212        C296   1.467       .  S
O213       Cr220   2.014       .  S
O214       Cr220   2.023       .  S
O214        C215   1.265       .  A
C215        O216   1.267       .  A
C215        C353   1.506       .  S
O216       Cr221   2.014       .  S
O217       Cr221   1.975       .  S
O217        C218   1.259       .  A
C218        C248   1.460       .  S
Cr219       O222   1.765       .  S
Cr220       O222   1.770       .  S
Cr221       O222   1.774       .  S
O223       Cr241   1.981       .  S
O223        C231   1.261       .  A
O224       Cr241   1.988       .  S
O224        C225   1.254       .  A
C225        O226   1.262       .  A
C225        C320   1.475       .  S
O226       Cr242   1.979       .  S
O227       Cr242   2.008   1_565  S
O227        C228   1.266   1_565  A
C228        O229   1.263       .  A
C228        C284   1.500       .  S
O229       Cr243   2.000       .  S
O230       Cr243   2.029       .  S
O230        C231   1.272       .  A
C231        C380   1.496       .  S
O232       Cr241   1.993       .  S
O232        C240   1.261       .  A
O233       Cr241   1.961       .  S
O233        C234   1.263       .  A
C234        O235   1.264   1_545  A
C234        C332   1.462       .  S
O235       Cr242   2.006   1_565  S
O236       Cr242   1.978   1_565  S
O236        C237   1.260   1_565  A
C237        O238   1.269       .  A
C237        C272   1.489   1_545  S
O238       Cr243   2.013       .  S
O239       Cr243   2.013       .  S
O239        C240   1.264       .  A
C240        C365   1.502       .  S
Cr241       O244   1.769       .  S
Cr242       O244   1.771       .  S
Cr243       O244   1.775       .  S
C245        C246   1.428       .  A
C245        C250   1.451       .  A
C246        C247   1.390       .  A
C246        H255   1.033       .  S
C247        C248   1.382       .  A
C247        S251   1.802       .  S
C248        C249   1.376       .  A
C249        C250   1.410       .  A
C249        H256   1.082       .  S
C250        S252   1.734       .  S
S251        H254   1.396       .  S
S252        H253   1.397       .  S
C257        C258   1.433       .  A
C257        C262   1.464       .  A
C258        C259   1.412       .  A
C258        H267   1.053       .  S
C259        C260   1.397       .  A
C259        S263   1.800       .  S
C260        C261   1.383       .  A
C261        C262   1.398       .  A
C261        H268   1.086       .  S
C262        S264   1.811       .  S
S263        H266   1.405       .  S
C269        C658   1.424       .  A
C269        C274   1.486       .  A
C270        C657   1.427       .  A
C270        C271   1.400       .  A
C270        H279   1.022       .  S
C271        C272   1.387       .  A
C271        S275   1.806   1_565  S
C272        C661   1.385       .  A
C273        C660   1.384       .  A
C273        C274   1.413       .  A
C273        H280   1.083       .  S
C274        S276   1.814       .  S
S275        H278   1.407   1_545  S
C281        C282   1.432       .  A
C281        C674   1.454       .  A
C282        C283   1.410       .  A
C282        H291   1.041       .  S
C283        C672   1.408       .  A
C283        S287   1.801       .  S
C284        C671   1.408   1_545  A
C284        C285   1.404       .  A
C285        C286   1.417       .  A
C285        H292   1.083       .  S
C286        C669   1.454   1_545  A
C286        S288   1.824       .  S
S287        H290   1.405       .  S
S288        H289   1.409       .  S
C293        C294   1.392       .  A
C293        C298   1.501   1_655  A
C294        C295   1.414   1_655  A
C294       H1079   1.016   1_545  S
C295        C296   1.394       .  A
C295       S1075   1.800       .  S
C296        C297   1.362       .  A
C297        C298   1.393       .  A
C297        H304   1.085       .  S
C298        S300   1.821   1_455  S
S299       C1071   1.804       .  S
S299       H1078   1.401       .  S
H302       S1075   1.404       .  S
H303       C1070   1.021   1_565  S
C305        C306   1.406   1_455  A
C305        C310   1.454       .  A
C306        C307   1.406       .  A
C306       H1091   1.035       .  S
C307        C308   1.394   1_655  A
C307       S1087   1.807       .  S
C308        C309   1.398       .  A
C309        C310   1.405       .  A
C309        H316   1.083       .  S
C310        S312   1.811       .  S
S311       C1083   1.807       .  S
S311       H1090   1.408       .  S
S312        H313   1.406       .  S
H314       S1087   1.407       .  S
H315       C1082   1.045       .  S
C317        C706   1.435       .  A
C317        C322   1.486       .  A
C318        C705   1.423   1_545  A
C318        C319   1.407       .  A
C318        H327   1.052       .  S
C319        C320   1.409       .  A
C319        S323   1.796       .  S
C320        C709   1.386   1_545  A
C321        C708   1.369       .  A
C321        C322   1.391       .  A
C321        H328   1.085       .  S
C322        S324   1.806       .  S
S323        H326   1.386       .  S
S324        H325   1.406       .  S
C329        C718   1.465       .  A
C329        C334   1.443       .  A
C330        C717   1.449   1_545  A
C330        C331   1.388       .  A
C330        H339   1.063       .  S
C331        C332   1.379       .  A
C331        S335   1.814       .  S
C332        C721   1.389   1_545  A
C333        C720   1.389       .  A
C333        C334   1.410       .  A
C333        H340   1.085       .  S
C334        S336   1.746   1_455  S
S335        H338   1.408       .  S
S336        H337   1.391       .  S
C341        C342   1.444       .  A
C341        C346   1.458   1_455  A
C342        C343   1.424       .  A
C342        H351   1.020       .  S
C343        C344   1.414       .  A
C343        S347   1.798       .  S
C344        C345   1.396       .  A
C345        C346   1.407   1_455  A
C345        H352   1.083   1_455  S
C346       S1124   1.839       .  S
S347        H350   1.406       .  S
S348       C1122   1.840       .  S
S348        H349   1.409       .  S
C353        C354   1.371       .  A
C353        C358   1.401       .  A
C354        C355   1.412       .  A
C354        H363   1.085       .  S
C355        C356   1.476       .  A
C355        S359   1.779       .  S
C356        C357   1.451       .  A
C357        C358   1.423       .  A
C357        H364   1.068       .  S
C358        S360   1.795       .  S
S359        H362   1.409       .  S
S360        H361   1.405       .  S
C365        C366   1.387       .  A
C365        C370   1.396       .  A
C366        C367   1.421       .  A
C366        H375   1.086       .  S
C367        C368   1.494       .  A
C367        S371   1.809   1_556  S
C368        C369   1.402       .  A
C369        C370   1.412       .  A
C369        H376   1.045       .  S
C370        S372   1.797       .  S
S372        H373   1.405       .  S
C377        C378   1.440       .  A
C377        C382   1.454       .  A
C378        C379   1.410       .  A
C378        H387   1.047       .  S
C379        C380   1.404       .  A
C379        S383   1.803       .  S
C380        C381   1.395       .  A
C381        C382   1.417       .  A
C381        H388   1.086       .  S
C382        S384   1.806       .  S
S383        H386   1.407       .  S
S384        H385   1.410       .  S
C389        C756   1.677   1_554  S
C389        C571   1.702       .  S
C389       C1360   1.823       .  S
C389        C588   1.848       .  S
C390        C535   1.737   1_655  S
C390        C744   1.704   1_655  S
C390       C1359   1.824       .  S
C390        C585   1.855   1_655  S
C391        C511   1.696       .  S
C391        C717   1.663   1_554  S
C391        C584   1.853   1_455  S
C392        C681   1.697   1_655  S
C392        C499   1.651   1_655  S
C392        C975   1.917       .  S
C393        C657   1.699       .  S
C393        C475   1.697   1_556  S
C393        C974   1.902       .  S
C393        C588   1.880   1_556  S
C394        C633   1.685       .  S
C394        C451   1.723       .  S
C394        C583   1.846       .  S
C394        C587   1.886       .  S
O395       Cr413   1.977       .  S
O395        C403   1.261       .  A
O396       Cr413   1.968       .  S
O396        C397   1.253       .  A
C397        O398   1.262       .  A
C397        C502   1.477       .  S
O398       Cr414   1.983       .  S
O399       Cr414   2.043       .  S
O399        C400   1.280       .  A
C400        O401   1.256       .  A
C400        C538   1.523       .  S
O401       Cr415   1.986       .  S
O402       Cr415   1.992       .  S
O402        C403   1.261       .  A
C403        C454   1.472       .  S
O404       Cr413   1.996       .  S
O404        C412   1.261       .  A
O405       Cr413   1.968       .  S
O405        C406   1.265       .  A
C406        O407   1.267       .  A
C406        C490   1.477       .  S
O407       Cr414   2.023       .  S
O408       Cr414   2.028       .  S
O408        C409   1.266       .  A
C409        O410   1.267       .  A
C409        C547   1.513       .  S
O410       Cr415   2.017       .  S
O411       Cr415   1.976       .  S
O411        C412   1.260       .  A
C412        C442   1.462       .  S
Cr413       O416   1.773       .  S
Cr414       O416   1.769       .  S
Cr415       O416   1.783       .  S
O417       Cr435   1.978       .  S
O417        C425   1.262       .  A
O418       Cr435   1.996       .  S
O418        C419   1.255       .  A
C419        O420   1.264       .  A
C419        C514   1.477       .  S
O420       Cr436   1.975       .  S
O421       Cr436   2.013       .  S
O421        C422   1.265       .  A
C422        O423   1.264       .  A
C422        C478   1.507       .  S
O423       Cr437   2.008       .  S
O424       Cr437   2.016       .  S
O424        C425   1.270       .  A
C425        C574   1.487       .  S
O426       Cr435   1.980       .  S
O426        C434   1.259       .  A
O427       Cr435   1.979       .  S
O427        C428   1.264       .  A
C428        O429   1.266       .  A
C428        C526   1.473       .  S
O429       Cr436   2.012       .  S
O430       Cr436   1.977       .  S
O430        C431   1.261       .  A
C431        O432   1.267       .  A
C431        C466   1.482       .  S
O432       Cr437   2.002       .  S
O433       Cr437   2.012       .  S
O433        C434   1.264       .  A
C434        C559   1.495       .  S
Cr435       O438   1.773       .  S
Cr436       O438   1.763       .  S
Cr437       O438   1.777       .  S
C439        C588   1.681       .  S
C439        C440   1.432       .  A
C439        C444   1.451       .  A
C440        C441   1.389       .  A
C440        H449   1.033       .  S
C441        C442   1.379       .  A
C441        S445   1.801       .  S
C442        C443   1.378       .  A
C443        C444   1.412       .  A
C443        H450   1.080       .  S
C444        S446   1.732       .  S
S445        H448   1.396       .  S
S446        H447   1.398       .  S
C451        C452   1.427       .  A
C451        C456   1.467       .  A
C452        C453   1.406       .  A
C452        H461   1.046       .  S
C453        C454   1.395       .  A
C453        S457   1.799       .  S
C454        C455   1.382       .  A
C455        C456   1.397       .  A
C455        H462   1.086       .  S
C456        S458   1.811       .  S
S457        H460   1.406       .  S
S458        H653   1.406       .  S
H459        S652   1.406       .  S
C463        C587   1.702       .  S
C463        C468   1.482       .  A
C464        C465   1.397       .  A
C464        H473   1.020       .  S
C465        C466   1.387       .  A
C465        S469   1.808       .  S
C467        C468   1.411       .  A
C467        H474   1.081       .  S
C468        S470   1.815       .  S
S469        H472   1.407       .  S
S470        H665   1.366       .  S
H471        S664   1.366       .  S
C475        C476   1.437       .  A
C476        C477   1.415       .  A
C476        H485   1.046       .  S
C477        S481   1.799       .  S
C478        C479   1.404       .  A
C479        C480   1.419       .  A
C479        H486   1.082       .  S
C480        S482   1.823       .  S
S481        H484   1.404       .  S
S482        H483   1.409       .  S
C487        C586   1.697   1_454  S
C487        C488   1.404   1_455  A
C487        C492   1.517       .  A
C488        C489   1.416   1_655  A
C488       H1273   1.027       .  S
C489        C490   1.393       .  A
C489       S1269   1.802       .  S
C490        C491   1.357       .  A
C491        C492   1.403       .  A
C491        H498   1.089       .  S
C492        S494   1.826   1_554  S
S493       C1265   1.804       .  S
S493       H1272   1.400       .  S
S494        H689   1.398   1_556  S
H495        S688   1.401       .  S
H496       S1269   1.402       .  S
H497       C1264   1.024       .  S
C499        C500   1.409   1_455  A
C499        C504   1.457       .  A
C500        C501   1.406       .  A
C500       H1285   1.031       .  S
C501        C502   1.392   1_655  A
C501       S1281   1.805       .  S
C502        C503   1.397       .  A
C503        C504   1.403       .  A
C503        H510   1.083       .  S
C504        S506   1.814       .  S
S505       C1277   1.806       .  S
S505       H1284   1.407       .  S
S506        H507   1.407       .  S
H508       S1281   1.407       .  S
H509       C1276   1.034       .  S
C511        C516   1.485       .  A
C512        C513   1.412       .  A
C512        H521   1.043       .  S
C513        C514   1.400       .  A
C513        S517   1.799       .  S
C515        C516   1.396       .  A
C515        H522   1.087       .  S
C516        S518   1.833       .  S
S517        H520   1.391       .  S
S518        H519   1.410       .  S
C523        C585   1.666       .  S
C523        C528   1.438       .  A
C524        C525   1.396       .  A
C524        H533   1.065       .  S
C525        C526   1.386       .  A
C525        S529   1.812       .  S
C527        C528   1.413       .  A
C527        H534   1.085       .  S
C528        S530   1.737   1_455  S
S529        H532   1.406       .  S
S530        H531   1.391       .  S
C535        C536   1.438       .  A
C535        C540   1.455   1_455  A
C536        C537   1.438       .  A
C536        H545   1.024       .  S
C537        C538   1.428       .  A
C537        S541   1.788       .  S
C538        C539   1.396       .  A
C539        C540   1.403   1_455  A
C539        H546   1.083   1_455  S
C540       S1318   1.839       .  S
S541        H544   1.401       .  S
S542       C1316   1.837       .  S
S542        H543   1.409       .  S
C547        C548   1.373       .  A
C547        C552   1.401       .  A
C548        C549   1.419       .  A
C548        H557   1.085       .  S
C549        C550   1.477       .  A
C549        S553   1.768       .  S
C550        C584   1.705   1_455  S
C550        C551   1.453       .  A
C551        C552   1.422       .  A
C551        H558   1.068       .  S
C552        S554   1.794       .  S
S553        H556   1.409       .  S
S554        H555   1.405       .  S
C559        C560   1.388       .  A
C559        C564   1.395       .  A
C560        C561   1.421       .  A
C560        H569   1.085       .  S
C561        C562   1.491       .  A
C561        S565   1.809       .  S
C562        C583   1.671       .  S
C562        C563   1.399       .  A
C563        C564   1.406       .  A
C563        H570   1.043       .  S
C564        S566   1.800       .  S
S565        H762   1.349       .  S
S566        H567   1.405       .  S
H568        S759   1.338       .  S
C571        C572   1.430       .  A
C571        C576   1.454       .  A
C572        C573   1.404       .  A
C572        H581   1.041       .  S
C573        C574   1.401       .  A
C573        S577   1.803       .  S
C574        C575   1.395       .  A
C575        C576   1.413       .  A
C575        H582   1.086       .  S
C576        S578   1.808       .  S
S577        H580   1.407       .  S
S578        H579   1.410       .  S
C583        C765   1.709       .  S
C583       C1166   1.821       .  S
C584        C729   1.729   1_654  S
C584       C1165   1.823       .  S
C585        C705   1.688       .  S
C586        C693   1.651   1_655  S
C586        C781   1.914       .  S
C587        C669   1.696       .  S
C587        C780   1.909       .  S
C588        C645   1.727   1_554  S
O589       Cr607   1.979       .  S
O589        C597   1.260       .  A
O590       Cr607   1.972       .  S
O590        C591   1.256       .  A
C591        O592   1.263       .  A
C591        C696   1.480       .  S
O592       Cr608   1.982       .  S
O593       Cr608   2.036       .  S
O593        C594   1.278       .  A
C594        O595   1.255       .  A
C594        C732   1.517       .  S
O595       Cr609   1.983       .  S
O596       Cr609   1.995       .  S
O596        C597   1.260       .  A
C597        C648   1.474       .  S
O598       Cr607   2.000       .  S
O598        C606   1.264       .  A
O599       Cr607   1.971       .  S
O599        C600   1.264       .  A
C600        O601   1.265       .  A
C600        C684   1.476       .  S
O601       Cr608   2.016       .  S
O602       Cr608   2.024       .  S
O602        C603   1.266       .  A
C603        O604   1.267       .  A
C603        C741   1.511       .  S
O604       Cr609   2.019       .  S
O605       Cr609   1.979       .  S
O605        C606   1.262       .  A
C606        C636   1.467       .  S
Cr607       O610   1.771       .  S
Cr608       O610   1.773       .  S
Cr609       O610   1.785       .  S
O611       Cr629   1.979       .  S
O611        C619   1.263       .  A
O612       Cr629   1.995       .  S
O612        C613   1.254       .  A
C613        O614   1.264       .  A
C613        C708   1.477       .  S
O614       Cr630   1.975       .  S
O615       Cr630   2.009       .  S
O615        C616   1.265       .  A
C616        O617   1.264       .  A
C616        C672   1.504       .  S
O617       Cr631   2.006       .  S
O618       Cr631   2.021       .  S
O618        C619   1.270       .  A
C619        C768   1.489       .  S
O620       Cr629   1.978       .  S
O620        C628   1.258       .  A
O621       Cr629   1.973       .  S
O621        C622   1.262       .  A
C622        O623   1.265       .  A
C622        C720   1.470       .  S
O623       Cr630   2.010       .  S
O624       Cr630   1.975       .  S
O624        C625   1.260       .  A
C625        O626   1.267       .  A
C625        C660   1.482       .  S
O626       Cr631   2.003       .  S
O627       Cr631   2.011       .  S
O627        C628   1.263       .  A
C628        C753   1.494       .  S
Cr629       O632   1.772       .  S
Cr630       O632   1.766       .  S
Cr631       O632   1.778       .  S
C633        C634   1.429       .  A
C633        C638   1.454       .  A
C634        C635   1.392       .  A
C634        H643   1.035       .  S
C635        C636   1.383       .  A
C635        S639   1.801       .  S
C636        C637   1.380       .  A
C637        C638   1.414       .  A
C637        H644   1.083       .  S
C638        S640   1.740       .  S
S639        H642   1.398       .  S
S640        H641   1.396       .  S
C645        C646   1.431       .  A
C645        C650   1.464       .  A
C646        C647   1.410       .  A
C646        H655   1.044       .  S
C647        C648   1.395       .  A
C647        S651   1.803       .  S
C648        C649   1.382       .  A
C649        C650   1.398       .  A
C649        H656   1.085       .  S
C650        S652   1.812       .  S
S651        H654   1.406       .  S
C657        C662   1.480       .  A
C658        C659   1.397       .  A
C658        H667   1.022       .  S
C659        C660   1.387       .  A
C659        S663   1.807       .  S
C661        C662   1.415       .  A
C661        H668   1.078       .  S
C662        S664   1.805       .  S
S663        H666   1.407       .  S
C669        C670   1.433       .  A
C670        C671   1.409       .  A
C670        H679   1.041       .  S
C671        S675   1.801       .  S
C672        C673   1.403       .  A
C673        C674   1.418       .  A
C673        H680   1.082       .  S
C674        S676   1.822       .  S
S675        H678   1.404       .  S
S676        H677   1.409       .  S
C681        C682   1.405   1_455  A
C681        C686   1.517       .  A
C682        C683   1.417   1_655  A
C682       H1467   1.026       .  S
C683        C684   1.395       .  A
C683       S1463   1.804       .  S
C684        C685   1.357       .  A
C685        C686   1.402       .  A
C685        H692   1.089       .  S
C686        S688   1.827       .  S
S687       C1459   1.804       .  S
S687       H1466   1.399       .  S
H690       S1463   1.400       .  S
H691       C1458   1.025       .  S
C693        C694   1.410   1_455  A
C693        C698   1.455       .  A
C694        C695   1.407       .  A
C694       H1479   1.033       .  S
C695        C696   1.394   1_655  A
C695       S1475   1.806       .  S
C696        C697   1.398       .  A
C697        C698   1.404       .  A
C697        H704   1.083       .  S
C698        S700   1.811       .  S
S699       C1471   1.805       .  S
S699       H1478   1.407       .  S
S700        H701   1.407       .  S
H702       S1475   1.407       .  S
H703       C1470   1.031       .  S
C705        C710   1.482       .  A
C706        C707   1.412       .  A
C706        H715   1.044       .  S
C707        C708   1.400       .  A
C707        S711   1.797       .  S
C709        C710   1.395       .  A
C709        H716   1.087       .  S
C710        S712   1.831       .  S
S711        H714   1.392       .  S
S712        H713   1.410       .  S
C717        C722   1.439       .  A
C718        C719   1.394       .  A
C718        H727   1.065       .  S
C719        C720   1.385       .  A
C719        S723   1.813       .  S
C721        C722   1.411       .  A
C721        H728   1.085       .  S
C722        S724   1.741   1_455  S
S723        H726   1.406       .  S
S724        H725   1.391       .  S
C729        C730   1.432       .  A
C729        C734   1.451   1_455  A
C730        C731   1.432       .  A
C730        H739   1.021       .  S
C731        C732   1.423       .  A
C731        S735   1.782       .  S
C732        C733   1.394       .  A
C733        C734   1.401   1_455  A
C733        H740   1.083   1_455  S
C734       S1512   1.835       .  S
S735        H738   1.404       .  S
S736       C1510   1.840       .  S
S736        H737   1.409       .  S
C741        C742   1.373       .  A
C741        C746   1.401       .  A
C742        C743   1.418       .  A
C742        H751   1.085       .  S
C743        C744   1.478       .  A
C743        S747   1.770       .  S
C744        C745   1.452       .  A
C745        C746   1.422       .  A
C745        H752   1.067       .  S
C746        S748   1.797       .  S
S747        H750   1.409       .  S
S748        H749   1.403       .  S
C753        C754   1.387       .  A
C753        C758   1.395       .  A
C754        C755   1.421       .  A
C754        H763   1.086       .  S
C755        C756   1.491       .  A
C755        S759   1.804   1_556  S
C756        C757   1.400       .  A
C757        C758   1.406       .  A
C757        H764   1.041       .  S
C758        S760   1.800       .  S
S760        H761   1.406       .  S
C765        C766   1.435       .  A
C765        C770   1.453       .  A
C766        C767   1.406       .  A
C766        H775   1.041       .  S
C767        C768   1.401       .  A
C767        S771   1.805       .  S
C768        C769   1.397       .  A
C769        C770   1.416       .  A
C769        H776   1.086       .  S
C770        S772   1.806       .  S
S771        H774   1.408       .  S
S772        H773   1.409       .  S
C777       C1144   1.682   1_554  S
C777        C959   1.712       .  S
C777        C976   1.850   1_554  S
C778        C923   1.757       .  S
C778       C1132   1.690       .  S
C778        C973   1.862       .  S
C779        C899   1.697       .  S
C779       C1105   1.659   1_554  S
C779        C972   1.862       .  S
C779       C1362   1.914   1_554  S
C780       C1069   1.693   1_565  S
C780        C887   1.652   1_565  S
C780       C1361   1.906       .  S
C781       C1045   1.701       .  S
C781        C863   1.707   1_556  S
C781        C976   1.882       .  S
C782       C1021   1.682       .  S
C782        C839   1.725       .  S
C782        C971   1.851       .  S
C782        C975   1.887       .  S
O783       Cr801   1.977       .  S
O783        C791   1.261       .  A
O784       Cr801   1.980       .  S
O784        C785   1.257       .  A
C785        O786   1.261       .  A
C785        C890   1.481       .  S
O786       Cr802   1.977       .  S
O787       Cr802   2.041       .  S
O787        C788   1.278       .  A
C788        O789   1.254       .  A
C788        C926   1.510       .  S
O789       Cr803   1.968       .  S
O790       Cr803   2.002       .  S
O790        C791   1.262       .  A
C791        C842   1.475       .  S
O792       Cr801   1.997       .  S
O792        C800   1.263       .  A
O793       Cr801   1.960       .  S
O793        C794   1.261       .  A
C794        O795   1.266       .  A
C794        C878   1.468       .  S
O795       Cr802   2.016       .  S
O796       Cr802   2.021       .  S
O796        C797   1.264       .  A
C797        O798   1.268       .  A
C797        C935   1.508       .  S
O798       Cr803   2.018       .  S
O799       Cr803   1.971       .  S
O799        C800   1.259       .  A
C800        C830   1.460       .  S
Cr801       O804   1.766       .  S
Cr802       O804   1.770       .  S
Cr803       O804   1.776       .  S
O805       Cr823   1.974       .  S
O805        C813   1.260       .  A
O806       Cr823   1.991       .  S
O806        C807   1.255       .  A
C807        O808   1.262       .  A
C807        C902   1.477       .  S
O808       Cr824   1.978       .  S
O809       Cr824   2.009   1_565  S
O809        C810   1.266   1_565  A
C810        O811   1.263       .  A
C810        C866   1.500       .  S
O811       Cr825   2.000       .  S
O812       Cr825   2.025       .  S
O812        C813   1.271       .  A
C813        C962   1.490       .  S
O814       Cr823   1.990       .  S
O814        C822   1.261       .  A
O815       Cr823   1.962       .  S
O815        C816   1.263       .  A
C816        O817   1.265       .  A
C816        C914   1.466       .  S
O817       Cr824   2.010       .  S
O818       Cr824   1.977   1_565  S
O818        C819   1.260   1_565  A
C819        O820   1.269       .  A
C819        C854   1.489   1_545  S
O820       Cr825   2.012       .  S
O821       Cr825   2.010       .  S
O821        C822   1.264       .  A
C822        C947   1.499       .  S
Cr823       O826   1.768       .  S
Cr824       O826   1.768       .  S
Cr825       O826   1.777       .  S
C827        C976   1.679   1_554  S
C827        C828   1.426       .  A
C827        C832   1.453       .  A
C828        C829   1.390       .  A
C828        H837   1.030       .  S
C829        C830   1.381       .  A
C829        S833   1.800       .  S
C830        C831   1.376       .  A
C831        C832   1.411       .  A
C831        H838   1.083       .  S
C832        S834   1.735       .  S
S833        H836   1.397       .  S
S834        H835   1.396       .  S
C839        C840   1.433       .  A
C839        C844   1.464       .  A
C840        C841   1.412       .  A
C840        H849   1.052       .  S
C841        C842   1.397       .  A
C841        S845   1.801       .  S
C842        C843   1.383       .  A
C843        C844   1.398       .  A
C843        H850   1.086       .  S
C844        S846   1.811       .  S
S845        H848   1.405       .  S
S846       H1041   1.405       .  S
H847       S1040   1.404       .  S
C851        C975   1.706       .  S
C851       C1240   1.425       .  A
C851        C856   1.487       .  A
C852       C1239   1.427       .  A
C852        C853   1.400       .  A
C852        H861   1.025       .  S
C853        C854   1.388       .  A
C853        S857   1.807   1_565  S
C854       C1243   1.385       .  A
C855       C1242   1.385       .  A
C855        C856   1.414       .  A
C855        H862   1.083       .  S
C856        S858   1.815       .  S
S857        H860   1.407   1_545  S
S858       H1053   1.368       .  S
H859       S1052   1.367       .  S
C863        C864   1.435       .  A
C863       C1256   1.456       .  A
C864        C865   1.412       .  A
C864        H873   1.040       .  S
C865       C1254   1.406       .  A
C865        S869   1.801       .  S
C866       C1253   1.407   1_545  A
C866        C867   1.404       .  A
C867        C868   1.418       .  A
C867        H874   1.083       .  S
C868       C1251   1.455   1_545  A
C868        S870   1.822       .  S
S869        H872   1.405       .  S
S870        H871   1.409       .  S
C875        C974   1.688   1_544  S
C875        C876   1.391       .  A
C875        C880   1.501       .  A
C876        C877   1.414       .  A
C877        C878   1.394       .  A
C878        C879   1.363       .  A
C879        C880   1.394       .  A
C879        H886   1.085       .  S
C880        S882   1.820       .  S
S882       H1077   1.410   1_554  S
H883       S1076   1.408       .  S
C887        C888   1.409       .  A
C887        C892   1.451       .  A
C888        C889   1.408       .  A
C889        C890   1.396       .  A
C890        C891   1.399       .  A
C891        C892   1.404       .  A
C891        H898   1.083       .  S
C892        S894   1.811       .  S
S894        H895   1.407       .  S
C899       C1288   1.434       .  A
C899        C904   1.489       .  A
C900       C1287   1.424   1_545  A
C900        C901   1.408       .  A
C900        H909   1.050       .  S
C901        C902   1.408       .  A
C901        S905   1.796       .  S
C902       C1291   1.386   1_545  A
C903       C1290   1.368       .  A
C903        C904   1.391       .  A
C903        H910   1.085       .  S
C904        S906   1.807       .  S
S905        H908   1.387       .  S
S906        H907   1.406       .  S
C911        C973   1.653       .  S
C911       C1300   1.463       .  A
C911        C916   1.442       .  A
C912       C1299   1.450   1_545  A
C912        C913   1.389       .  A
C912        H921   1.062       .  S
C913        C914   1.380       .  A
C913        S917   1.813       .  S
C914       C1303   1.390   1_545  A
C915       C1302   1.389       .  A
C915        C916   1.410       .  A
C915        H922   1.085       .  S
C916        S918   1.745       .  S
S917        H920   1.408       .  S
S918        H919   1.390       .  S
C923        C924   1.445       .  A
C923        C928   1.457       .  A
C924        C925   1.426       .  A
C924        H933   1.023       .  S
C925        C926   1.416       .  A
C925        S929   1.798       .  S
C926        C927   1.395       .  A
C927        C928   1.407       .  A
C927        H934   1.083       .  S
S929        H932   1.405       .  S
S930        H931   1.409       .  S
C935        C936   1.371       .  A
C935        C940   1.402       .  A
C936        C937   1.412       .  A
C936        H945   1.085       .  S
C937        C938   1.478       .  A
C937        S941   1.778       .  S
C938        C972   1.691       .  S
C938        C939   1.450       .  A
C939        C940   1.423       .  A
C939        H946   1.069   1_554  S
C940        S942   1.795       .  S
S941        H944   1.409       .  S
S942        H943   1.405       .  S
C947        C948   1.387       .  A
C947        C952   1.396       .  A
C948        C949   1.421       .  A
C948        H957   1.086       .  S
C949        C950   1.494       .  A
C949        S953   1.810       .  S
C950        C971   1.676       .  S
C950        C951   1.400       .  A
C951        C952   1.409       .  A
C951        H958   1.045       .  S
C952        S954   1.797       .  S
S953       H1150   1.348       .  S
S954        H955   1.405       .  S
H956       S1147   1.347       .  S
C959        C960   1.439       .  A
C959        C964   1.453       .  A
C960        C961   1.407       .  A
C960        H969   1.049       .  S
C961        C962   1.404       .  A
C961        S965   1.804       .  S
C962        C963   1.396       .  A
C963        C964   1.415       .  A
C963        H970   1.086       .  S
C964        S966   1.808       .  S
S965        H968   1.407       .  S
S966        H967   1.409       .  S
C971       C1153   1.716       .  S
C972       C1117   1.752   1_554  S
C973       C1093   1.699       .  S
C973       C1168   1.911       .  S
C974       C1081   1.661   1_565  S
C974       C1167   1.909   1_556  S
C975       C1057   1.705       .  S
C976       C1033   1.729       .  S
O977       Cr995   1.980       .  S
O977        C985   1.260       .  A
O978       Cr995   1.975       .  S
O978        C979   1.256       .  A
C979        O980   1.262       .  A
C979       C1084   1.481       .  S
O980       Cr996   1.982       .  S
O981       Cr996   2.028       .  S
O981        C982   1.275       .  A
C982        O983   1.255       .  A
C982       C1120   1.506       .  S
O983       Cr997   1.969       .  S
O984       Cr997   2.006       .  S
O984        C985   1.262       .  A
C985       C1036   1.480       .  S
O986       Cr995   2.003       .  S
O986        C994   1.265       .  A
O987       Cr995   1.966       .  S
O987        C988   1.263       .  A
C988        O989   1.263       .  A
C988       C1072   1.469       .  S
O989       Cr996   2.008       .  S
O990       Cr996   2.027       .  S
O990        C991   1.266       .  A
C991        O992   1.267       .  A
C991       C1129   1.509       .  S
O992       Cr997   2.017       .  S
O993       Cr997   1.974       .  S
O993        C994   1.260       .  A
C994       C1024   1.464       .  S
Cr995       O998   1.767       .  S
Cr996       O998   1.775       .  S
Cr997       O998   1.779       .  S
O999      Cr1017   1.976       .  S
O999       C1007   1.259       .  A
O1000     Cr1017   1.985       .  S
O1000      C1001   1.254       .  A
C1001      O1002   1.262       .  A
C1001      C1096   1.470       .  S
O1002     Cr1018   1.973       .  S
O1003     Cr1018   2.019   1_565  S
O1003      C1004   1.268   1_565  A
C1004      O1005   1.266       .  A
C1004      C1060   1.510       .  S
O1005     Cr1019   2.009       .  S
O1006     Cr1019   2.024       .  S
O1006      C1007   1.270       .  A
C1007      C1156   1.491       .  S
O1008     Cr1017   1.991       .  S
O1008      C1016   1.262       .  A
O1009     Cr1017   1.956       .  S
O1009      C1010   1.261       .  A
C1010      O1011   1.264       .  A
C1010      C1108   1.462       .  S
O1011     Cr1018   2.006       .  S
O1012     Cr1018   1.983   1_565  S
O1012      C1013   1.260   1_565  A
C1013      O1014   1.267       .  A
C1013      C1048   1.486   1_545  S
O1014     Cr1019   2.002       .  S
O1015     Cr1019   2.016       .  S
O1015      C1016   1.265       .  A
C1016      C1141   1.504       .  S
Cr1017     O1020   1.770       .  S
Cr1018     O1020   1.771       .  S
Cr1019     O1020   1.775       .  S
C1021      C1022   1.430       .  A
C1021      C1026   1.452       .  A
C1022      C1023   1.393       .  A
C1022      H1031   1.032       .  S
C1023      C1024   1.382       .  A
C1023      S1027   1.806       .  S
C1024      C1025   1.379       .  A
C1025      C1026   1.413       .  A
C1025      H1032   1.082       .  S
C1026      S1028   1.740       .  S
S1027      H1030   1.399       .  S
S1028      H1029   1.396       .  S
C1033      C1034   1.435       .  A
C1033      C1038   1.464       .  A
C1034      C1035   1.414       .  A
C1034      H1043   1.053       .  S
C1035      C1036   1.398       .  A
C1035      S1039   1.801       .  S
C1036      C1037   1.384       .  A
C1037      C1038   1.400       .  A
C1037      H1044   1.086       .  S
C1038      S1040   1.811       .  S
S1039      H1042   1.405       .  S
C1045      C1434   1.422       .  A
C1045      C1050   1.486       .  A
C1046      C1433   1.421       .  A
C1046      C1047   1.395       .  A
C1046      H1055   1.028       .  S
C1047      C1048   1.389       .  A
C1047      S1051   1.806   1_565  S
C1048      C1437   1.386       .  A
C1049      C1436   1.385       .  A
C1049      C1050   1.413       .  A
C1049      H1056   1.083       .  S
C1050      S1052   1.814       .  S
S1051      H1054   1.406   1_545  S
C1057      C1058   1.433       .  A
C1057      C1450   1.457       .  A
C1058      C1059   1.412       .  A
C1058      H1067   1.041       .  S
C1059      C1448   1.408       .  A
C1059      S1063   1.802       .  S
C1060      C1447   1.411   1_545  A
C1060      C1061   1.406       .  A
C1061      C1062   1.420       .  A
C1061      H1068   1.083       .  S
C1062      C1445   1.448   1_545  A
C1062      S1064   1.830       .  S
S1063      H1066   1.405       .  S
S1064      H1065   1.410       .  S
C1069      C1070   1.399       .  A
C1069      C1074   1.515       .  A
C1070      C1071   1.417       .  A
C1071      C1072   1.390       .  A
C1072      C1073   1.355       .  A
C1073      C1074   1.401       .  A
C1073      H1080   1.090       .  S
C1074      S1076   1.824       .  S
C1081      C1082   1.414       .  A
C1081      C1086   1.447       .  A
C1082      C1083   1.408       .  A
C1083      C1084   1.396       .  A
C1084      C1085   1.400       .  A
C1085      C1086   1.402       .  A
C1085      H1092   1.083       .  S
C1086      S1088   1.810       .  S
S1088      H1089   1.406       .  S
C1093      C1482   1.436       .  A
C1093      C1098   1.487       .  A
C1094      C1481   1.424   1_545  A
C1094      C1095   1.402       .  A
C1094      H1103   1.048       .  S
C1095      C1096   1.406       .  A
C1095      S1099   1.798       .  S
C1096      C1485   1.385   1_545  A
C1097      C1484   1.369       .  A
C1097      C1098   1.393       .  A
C1097      H1104   1.084       .  S
C1098      S1100   1.803       .  S
S1099      H1102   1.387       .  S
S1100      H1101   1.407       .  S
C1105      C1494   1.466       .  A
C1105      C1110   1.442       .  A
C1106      C1493   1.449   1_545  A
C1106      C1107   1.386       .  A
C1106      H1115   1.062       .  S
C1107      C1108   1.380       .  A
C1107      S1111   1.813       .  S
C1108      C1497   1.389   1_545  A
C1109      C1496   1.389       .  A
C1109      C1110   1.411       .  A
C1109      H1116   1.085       .  S
C1110      S1112   1.746       .  S
S1111      H1114   1.408       .  S
S1112      H1113   1.390       .  S
C1117      C1118   1.441       .  A
C1117      C1122   1.458       .  A
C1118      C1119   1.422       .  A
C1118      H1127   1.015       .  S
C1119      C1120   1.412       .  A
C1119      S1123   1.796       .  S
C1120      C1121   1.395       .  A
C1121      C1122   1.405       .  A
C1121      H1128   1.083       .  S
S1123      H1126   1.407       .  S
S1124      H1125   1.409       .  S
C1129      C1130   1.372       .  A
C1129      C1134   1.402       .  A
C1130      C1131   1.413       .  A
C1130      H1139   1.085       .  S
C1131      C1132   1.478       .  A
C1131      S1135   1.779       .  S
C1132      C1133   1.449       .  A
C1133      C1134   1.424       .  A
C1133      H1140   1.068       .  S
C1134      S1136   1.795       .  S
S1135      H1138   1.409       .  S
S1136      H1137   1.404       .  S
C1141      C1142   1.388       .  A
C1141      C1146   1.396       .  A
C1142      C1143   1.423       .  A
C1142      H1151   1.086       .  S
C1143      C1144   1.495       .  A
C1143      S1147   1.809   1_556  S
C1144      C1145   1.400       .  A
C1145      C1146   1.411       .  A
C1145      H1152   1.045       .  S
C1146      S1148   1.797       .  S
S1148      H1149   1.406       .  S
C1153      C1154   1.440       .  A
C1153      C1158   1.453       .  A
C1154      C1155   1.408       .  A
C1154      H1163   1.048       .  S
C1155      C1156   1.403       .  A
C1155      S1159   1.805       .  S
C1156      C1157   1.395       .  A
C1157      C1158   1.416       .  A
C1157      H1164   1.086       .  S
C1158      S1160   1.806       .  S
S1159      H1162   1.407       .  S
S1160      H1161   1.409       .  S
C1165      C1532   1.676   1_554  S
C1165      C1347   1.705       .  S
C1165      C1364   1.849       .  S
C1166      C1311   1.734       .  S
C1166      C1520   1.702       .  S
C1166      C1361   1.856       .  S
C1167      C1287   1.694       .  S
C1167      C1493   1.659   1_554  S
C1167      C1360   1.855       .  S
C1168      C1457   1.698       .  S
C1168      C1275   1.653       .  S
C1169      C1433   1.706       .  S
C1169      C1251   1.696   1_556  S
C1169      C1364   1.883   1_556  S
C1170      C1409   1.687       .  S
C1170      C1227   1.720       .  S
C1170      C1359   1.848       .  S
C1170      C1363   1.881       .  S
O1171     Cr1189   1.974       .  S
O1171      C1179   1.260       .  A
O1172     Cr1189   1.974       .  S
O1172      C1173   1.256       .  A
C1173      O1174   1.263       .  A
C1173      C1278   1.479       .  S
O1174     Cr1190   1.982       .  S
O1175     Cr1190   2.035       .  S
O1175      C1176   1.277       .  A
C1176      O1177   1.255       .  A
C1176      C1314   1.515       .  S
O1177     Cr1191   1.982       .  S
O1178     Cr1191   1.993       .  S
O1178      C1179   1.260       .  A
C1179      C1230   1.469       .  S
O1180     Cr1189   1.997       .  S
O1180      C1188   1.263       .  A
O1181     Cr1189   1.973       .  S
O1181      C1182   1.265       .  A
C1182      O1183   1.264       .  A
C1182      C1266   1.477       .  S
O1183     Cr1190   2.013       .  S
O1184     Cr1190   2.025       .  S
O1184      C1185   1.266       .  A
C1185      O1186   1.267       .  A
C1185      C1323   1.511       .  S
O1186     Cr1191   2.018       .  S
O1187     Cr1191   1.974       .  S
O1187      C1188   1.261       .  A
C1188      C1218   1.462       .  S
Cr1189     O1192   1.770       .  S
Cr1190     O1192   1.770       .  S
Cr1191     O1192   1.784       .  S
O1193     Cr1211   1.978       .  S
O1193      C1201   1.262       .  A
O1194     Cr1211   1.995       .  S
O1194      C1195   1.255       .  A
C1195      O1196   1.263       .  A
C1195      C1290   1.476       .  S
O1196     Cr1212   1.971       .  S
O1197     Cr1212   2.020       .  S
O1197      C1198   1.268       .  A
C1198      O1199   1.263       .  A
C1198      C1254   1.508       .  S
O1199     Cr1213   2.002       .  S
O1200     Cr1213   2.023       .  S
O1200      C1201   1.271       .  A
C1201      C1350   1.491       .  S
O1202     Cr1211   1.984       .  S
O1202      C1210   1.260       .  A
O1203     Cr1211   1.972       .  S
O1203      C1204   1.263       .  A
C1204      O1205   1.266       .  A
C1204      C1302   1.470       .  S
O1205     Cr1212   2.013       .  S
O1206     Cr1212   1.978       .  S
O1206      C1207   1.260       .  A
C1207      O1208   1.268       .  A
C1207      C1242   1.486       .  S
O1208     Cr1213   2.007       .  S
O1209     Cr1213   2.004       .  S
O1209      C1210   1.262       .  A
C1210      C1335   1.491       .  S
Cr1211     O1214   1.773       .  S
Cr1212     O1214   1.764       .  S
Cr1213     O1214   1.776       .  S
C1215      C1364   1.684       .  S
C1215      C1216   1.430       .  A
C1215      C1220   1.454       .  A
C1216      C1217   1.389       .  A
C1216      H1225   1.033       .  S
C1217      C1218   1.379       .  A
C1217      S1221   1.801       .  S
C1218      C1219   1.379       .  A
C1219      C1220   1.413       .  A
C1219      H1226   1.082       .  S
C1220      S1222   1.737       .  S
S1221      H1224   1.397       .  S
S1222      H1223   1.397       .  S
C1227      C1228   1.430       .  A
C1227      C1232   1.460       .  A
C1228      C1229   1.408       .  A
C1228      H1237   1.044       .  S
C1229      C1230   1.395       .  A
C1229      S1233   1.802       .  S
C1230      C1231   1.382       .  A
C1231      C1232   1.395       .  A
C1231      H1238   1.085       .  S
C1232      S1234   1.810       .  S
S1233      H1236   1.406       .  S
S1234      H1429   1.404       .  S
H1235      S1428   1.407       .  S
C1239      C1363   1.698       .  S
C1239      C1244   1.480       .  A
C1240      C1241   1.398       .  A
C1240      H1249   1.024       .  S
C1241      C1242   1.388       .  A
C1241      S1245   1.808       .  S
C1243      C1244   1.414       .  A
C1243      H1250   1.078       .  S
C1244      S1246   1.807       .  S
S1245      H1248   1.407       .  S
S1246      H1441   1.365       .  S
H1247      S1440   1.366       .  S
C1251      C1252   1.431       .  A
C1252      C1253   1.408       .  A
C1252      H1261   1.040       .  S
C1253      S1257   1.801       .  S
C1254      C1255   1.406       .  A
C1255      C1256   1.421       .  A
C1255      H1262   1.082       .  S
C1256      S1258   1.822       .  S
S1257      H1260   1.404       .  S
S1258      H1259   1.409       .  S
C1263      C1362   1.700   1_554  S
C1263      C1264   1.405       .  A
C1263      C1268   1.518       .  A
C1264      C1265   1.417       .  A
C1265      C1266   1.395       .  A
C1266      C1267   1.356       .  A
C1267      C1268   1.402       .  A
C1267      H1274   1.089       .  S
C1268      S1270   1.828   1_554  S
S1270      H1465   1.399   1_556  S
H1271      S1464   1.402       .  S
C1275      C1276   1.409       .  A
C1275      C1280   1.455       .  A
C1276      C1277   1.407       .  A
C1277      C1278   1.394       .  A
C1278      C1279   1.397       .  A
C1279      C1280   1.404       .  A
C1279      H1286   1.083       .  S
C1280      S1282   1.810       .  S
S1282      H1283   1.406       .  S
C1287      C1292   1.485       .  A
C1288      C1289   1.412       .  A
C1288      H1297   1.045       .  S
C1289      C1290   1.399       .  A
C1289      S1293   1.796       .  S
C1291      C1292   1.397       .  A
C1291      H1298   1.087       .  S
C1292      S1294   1.831       .  S
S1293      H1296   1.391       .  S
S1294      H1295   1.411       .  S
C1299      C1361   1.666       .  S
C1299      C1304   1.441       .  A
C1300      C1301   1.393       .  A
C1300      H1309   1.065       .  S
C1301      C1302   1.385       .  A
C1301      S1305   1.811       .  S
C1303      C1304   1.413       .  A
C1303      H1310   1.085       .  S
C1304      S1306   1.741       .  S
S1305      H1308   1.406       .  S
S1306      H1307   1.390       .  S
C1311      C1312   1.433       .  A
C1311      C1316   1.455       .  A
C1312      C1313   1.431       .  A
C1312      H1321   1.019       .  S
C1313      C1314   1.422       .  A
C1313      S1317   1.784       .  S
C1314      C1315   1.395       .  A
C1315      C1316   1.403       .  A
C1315      H1322   1.083       .  S
S1317      H1320   1.402       .  S
S1318      H1319   1.409       .  S
C1323      C1324   1.373       .  A
C1323      C1328   1.400       .  A
C1324      C1325   1.418       .  A
C1324      H1333   1.085       .  S
C1325      C1326   1.480       .  A
C1325      S1329   1.774       .  S
C1326      C1360   1.706       .  S
C1326      C1327   1.453       .  A
C1327      C1328   1.422       .  A
C1327      H1334   1.067       .  S
C1328      S1330   1.797       .  S
S1329      H1332   1.409       .  S
S1330      H1331   1.403       .  S
C1335      C1336   1.387       .  A
C1335      C1340   1.393       .  A
C1336      C1337   1.419       .  A
C1336      H1345   1.086       .  S
C1337      C1338   1.490       .  A
C1337      S1341   1.806       .  S
C1338      C1359   1.673       .  S
C1338      C1339   1.399       .  A
C1339      C1340   1.405       .  A
C1339      H1346   1.042       .  S
C1340      S1342   1.799       .  S
S1341      H1538   1.340       .  S
S1342      H1343   1.406       .  S
H1344      S1535   1.342       .  S
C1347      C1348   1.433       .  A
C1347      C1352   1.452       .  A
C1348      C1349   1.405       .  A
C1348      H1357   1.043       .  S
C1349      C1350   1.403       .  A
C1349      S1353   1.804       .  S
C1350      C1351   1.396       .  A
C1351      C1352   1.416       .  A
C1351      H1358   1.086       .  S
C1352      S1354   1.804       .  S
S1353      H1356   1.407       .  S
S1354      H1355   1.410       .  S
C1359      C1541   1.705       .  S
C1360      C1505   1.734   1_554  S
C1361      C1481   1.689       .  S
C1362      C1469   1.648       .  S
C1363      C1445   1.700       .  S
C1364      C1421   1.729   1_554  S
O1365     Cr1383   1.982       .  S
O1365      C1373   1.262       .  A
O1366     Cr1383   1.966       .  S
O1366      C1367   1.253       .  A
C1367      O1368   1.262       .  A
C1367      C1472   1.478       .  S
O1368     Cr1384   1.983       .  S
O1369     Cr1384   2.039       .  S
O1369      C1370   1.279       .  A
C1370      O1371   1.257       .  A
C1370      C1508   1.520       .  S
O1371     Cr1385   1.987       .  S
O1372     Cr1385   1.999       .  S
O1372      C1373   1.262       .  A
C1373      C1424   1.477       .  S
O1374     Cr1383   1.998       .  S
O1374      C1382   1.262       .  A
O1375     Cr1383   1.968       .  S
O1375      C1376   1.264       .  A
C1376      O1377   1.267       .  A
C1376      C1460   1.476       .  S
O1377     Cr1384   2.019       .  S
O1378     Cr1384   2.026       .  S
O1378      C1379   1.265       .  A
C1379      O1380   1.266       .  A
C1379      C1517   1.510       .  S
O1380     Cr1385   2.016       .  S
O1381     Cr1385   1.981       .  S
O1381      C1382   1.261       .  A
C1382      C1412   1.467       .  S
Cr1383     O1386   1.771       .  S
Cr1384     O1386   1.772       .  S
Cr1385     O1386   1.783       .  S
O1387     Cr1405   1.983       .  S
O1387      C1395   1.263       .  A
O1388     Cr1405   1.995       .  S
O1388      C1389   1.255       .  A
C1389      O1390   1.264       .  A
C1389      C1484   1.478       .  S
O1390     Cr1406   1.975       .  S
O1391     Cr1406   2.013       .  S
O1391      C1392   1.266       .  A
C1392      O1393   1.264       .  A
C1392      C1448   1.508       .  S
O1393     Cr1407   2.007       .  S
O1394     Cr1407   2.020       .  S
O1394      C1395   1.271       .  A
C1395      C1544   1.492       .  S
O1396     Cr1405   1.984       .  S
O1396      C1404   1.259       .  A
O1397     Cr1405   1.980       .  S
O1397      C1398   1.265       .  A
C1398      O1399   1.266       .  A
C1398      C1496   1.472       .  S
O1399     Cr1406   2.011       .  S
O1400     Cr1406   1.975       .  S
O1400      C1401   1.260       .  A
C1401      O1402   1.268       .  A
C1401      C1436   1.482       .  S
O1402     Cr1407   2.004       .  S
O1403     Cr1407   2.013       .  S
O1403      C1404   1.264       .  A
C1404      C1529   1.496       .  S
Cr1405     O1408   1.772       .  S
Cr1406     O1408   1.764       .  S
Cr1407     O1408   1.777       .  S
C1409      C1410   1.435       .  A
C1409      C1414   1.453       .  A
C1410      C1411   1.394       .  A
C1410      H1419   1.034       .  S
C1411      C1412   1.382       .  A
C1411      S1415   1.803       .  S
C1412      C1413   1.378       .  A
C1413      C1414   1.412       .  A
C1413      H1420   1.081       .  S
C1414      S1416   1.735       .  S
S1415      H1418   1.397       .  S
S1416      H1417   1.397       .  S
C1421      C1422   1.432       .  A
C1421      C1426   1.464       .  A
C1422      C1423   1.412       .  A
C1422      H1431   1.048       .  S
C1423      C1424   1.397       .  A
C1423      S1427   1.799       .  S
C1424      C1425   1.382       .  A
C1425      C1426   1.398       .  A
C1425      H1432   1.085       .  S
C1426      S1428   1.812       .  S
S1427      H1430   1.406       .  S
C1433      C1438   1.486       .  A
C1434      C1435   1.396       .  A
C1434      H1443   1.026       .  S
C1435      C1436   1.387       .  A
C1435      S1439   1.807       .  S
C1437      C1438   1.414       .  A
C1437      H1444   1.082       .  S
C1438      S1440   1.814       .  S
S1439      H1442   1.406       .  S
C1445      C1446   1.439       .  A
C1446      C1447   1.417       .  A
C1446      H1455   1.046       .  S
C1447      S1451   1.800       .  S
C1448      C1449   1.404       .  A
C1449      C1450   1.420       .  A
C1449      H1456   1.082       .  S
C1450      S1452   1.821       .  S
S1451      H1454   1.403       .  S
S1452      H1453   1.409       .  S
C1457      C1458   1.403       .  A
C1457      C1462   1.517       .  A
C1458      C1459   1.416       .  A
C1459      C1460   1.394       .  A
C1460      C1461   1.357       .  A
C1461      C1462   1.404       .  A
C1461      H1468   1.089       .  S
C1462      S1464   1.825       .  S
C1469      C1470   1.413       .  A
C1469      C1474   1.454       .  A
C1470      C1471   1.406       .  A
C1471      C1472   1.393       .  A
C1472      C1473   1.399       .  A
C1473      C1474   1.402       .  A
C1473      H1480   1.083       .  S
C1474      S1476   1.814       .  S
S1476      H1477   1.407       .  S
C1481      C1486   1.481       .  A
C1482      C1483   1.412       .  A
C1482      H1491   1.043       .  S
C1483      C1484   1.399       .  A
C1483      S1487   1.797       .  S
C1485      C1486   1.394       .  A
C1485      H1492   1.087       .  S
C1486      S1488   1.830       .  S
S1487      H1490   1.391       .  S
S1488      H1489   1.410       .  S
C1493      C1498   1.437       .  A
C1494      C1495   1.395       .  A
C1494      H1503   1.066       .  S
C1495      C1496   1.385       .  A
C1495      S1499   1.812       .  S
C1497      C1498   1.410       .  A
C1497      H1504   1.085       .  S
C1498      S1500   1.735       .  S
S1499      H1502   1.405       .  S
S1500      H1501   1.391       .  S
C1505      C1506   1.435       .  A
C1505      C1510   1.455       .  A
C1506      C1507   1.436       .  A
C1506      H1515   1.022       .  S
C1507      C1508   1.426       .  A
C1507      S1511   1.788       .  S
C1508      C1509   1.397       .  A
C1509      C1510   1.403       .  A
C1509      H1516   1.083       .  S
S1511      H1514   1.402       .  S
S1512      H1513   1.408       .  S
C1517      C1518   1.372       .  A
C1517      C1522   1.401       .  A
C1518      C1519   1.417       .  A
C1518      H1527   1.085       .  S
C1519      C1520   1.474       .  A
C1519      S1523   1.768       .  S
C1520      C1521   1.453       .  A
C1521      C1522   1.422       .  A
C1521      H1528   1.067       .  S
C1522      S1524   1.797       .  S
S1523      H1526   1.409       .  S
S1524      H1525   1.403       .  S
C1529      C1530   1.387       .  A
C1529      C1534   1.395       .  A
C1530      C1531   1.421       .  A
C1530      H1539   1.086       .  S
C1531      C1532   1.492       .  A
C1531      S1535   1.807   1_556  S
C1532      C1533   1.401       .  A
C1533      C1534   1.408       .  A
C1533      H1540   1.045       .  S
C1534      S1536   1.798       .  S
S1536      H1537   1.406       .  S
C1541      C1542   1.434       .  A
C1541      C1546   1.452       .  A
C1542      C1543   1.408       .  A
C1542      H1551   1.043       .  S
C1543      C1544   1.403       .  A
C1543      S1547   1.803       .  S
C1544      C1545   1.396       .  A
C1545      C1546   1.414       .  A
C1545      H1552   1.086       .  S
C1546      S1548   1.805       .  S
S1547      H1550   1.408       .  S
S1548      H1549   1.410       .  S
