geometry optimzed in LAMMPS
_audit_creation_date              2020-11-30 
_audit_creation_method            'lammps2cif' 
_symmetry_space_group_name_H-M    'P1' 
_symmetry_Int_Tables_number       1 
_symmetry_cell_setting            triclinic 
loop_ 
_symmetry_equiv_pos_as_xyz 
  x,y,z 
_cell_length_a                    29.91334077 
_cell_length_b                    29.500073639041297 
_cell_length_c                    29.618103690026444 
_cell_angle_alpha                 90.34547638667767 
_cell_angle_beta                  89.62271656462649 
_cell_angle_gamma                 89.86325387008168 
loop_ 
_atom_site_label 
_atom_site_type_symbol 
_atom_site_fract_x 
_atom_site_fract_y 
_atom_site_fract_z 
_atom_site_charge 
C1          C  0.34431689  0.34146701  0.18033724    -0.02000
C2          C  0.34489729  0.11213278  0.38617338    -0.02000
C3          C  0.09101754  0.10475461  0.17916931    -0.02000
C4          C  0.09069833  0.33990106  0.38885852    -0.02000
C5          C  0.33873260  0.11746199  0.66546080    -0.02000
C6          C  0.09776679  0.12432237  0.88984971    -0.02000
C7          C  0.10368690  0.34250810  0.64554908    -0.02000
C8          C  0.30400325  0.36155763  0.89242395    -0.02000
N9          N  0.40349755  0.42289871  0.94090186    -0.05600
N10         N  0.38457715  0.39984222  0.90672369    -0.57700
N11         N  0.37904363  0.52801824  0.97558511    -0.05300
N12         N  0.34724421  0.55807426  0.96633452    -0.59900
N13         N  0.40788323  0.52594663  0.94157575    -0.04900
N14         N  0.39391528  0.55239480  0.90819932    -0.57700
N15         N  0.37490280  0.42361814  0.97526743    -0.04600
N16         N  0.33785891  0.40148918  0.96426368    -0.60200
C17         C  0.34313205  0.38563212  0.92162939     0.96600
C18         C  0.35707011  0.57438739  0.92445445     0.96300
N19         N  0.41147233  0.52900409  0.11672568    -0.05800
N20         N  0.39963245  0.55845973  0.14866144    -0.58300
N21         N  0.37949802  0.42261632  0.09023752    -0.03900
N22         N  0.34923248  0.39259453  0.10529346    -0.59600
N23         N  0.41284937  0.42432963  0.11920760    -0.05800
N24         N  0.40629107  0.39535577  0.15264430    -0.58600
N25         N  0.38099535  0.52889938  0.08510782    -0.03600
N26         N  0.34988676  0.55940227  0.09498220    -0.59600
Mn27       Mn  0.37865018  0.47532750  0.03168302     1.18400
C28         C  0.36218152  0.57973062  0.13410309     0.98600
C29         C  0.36678802  0.37450741  0.14416867     0.99300
N30         N  0.52287647  0.52706158  0.94089131    -0.05800
N31         N  0.53542574  0.55791134  0.91034989    -0.62200
N32         N  0.54935324  0.41868058  0.97331913    -0.04600
N33         N  0.58038284  0.38774353  0.96309517    -0.62800
N34         N  0.51918049  0.42044241  0.94083936    -0.05400
N35         N  0.53074275  0.39173151  0.90795726    -0.62400
N36         N  0.55443478  0.52466076  0.97193635    -0.04200
N37         N  0.58800542  0.55302600  0.96244042    -0.63100
Mn38       Mn  0.46376422  0.47400734  0.94035956     1.10700
C39         C  0.57595411  0.57513712  0.92421854     0.99900
C40         C  0.56785837  0.36942952  0.92281879     0.99900
N41         N  0.51876190  0.42359917  0.11583668    -0.05400
N42         N  0.52664830  0.39356122  0.14796771    -0.60700
N43         N  0.55286555  0.52713752  0.08056671    -0.04700
N44         N  0.58555640  0.55631996  0.08803108    -0.57500
N45         N  0.52261038  0.52976492  0.11310540    -0.06000
N46         N  0.53521810  0.56113803  0.14308953    -0.60300
N47         N  0.55149927  0.42345094  0.08591502    -0.05000
N48         N  0.58336901  0.39536113  0.09954454    -0.57500
Mn49       Mn  0.46645047  0.47714599  0.11635167     1.20200
Mn50       Mn  0.55208555  0.47297060  0.02778101     1.10100
Cl51       Cl  0.46510569  0.47460806  0.02869709    -0.85500
C52         C  0.56652356  0.37443459  0.13691016     0.96900
C53         C  0.57470698  0.57817367  0.12684592     0.96700
C54         C  0.33044907  0.61276205  0.16169761    -0.02000
C55         C  0.10092703  0.84582897  0.16343793    -0.02000
C56         C  0.10195432  0.62063027  0.40388133    -0.02000
C57         C  0.33322865  0.84679075  0.39806020    -0.02000
N58         N  0.41798705  0.03478846  0.61756541    -0.05600
N59         N  0.40798846  0.06598604  0.64887270    -0.57700
N60         N  0.38429796  0.92904240  0.58734043    -0.05300
N61         N  0.35236852  0.89998462  0.59992932    -0.59900
N62         N  0.41714319  0.92791657  0.61694581    -0.04900
N63         N  0.40843970  0.89740955  0.64847471    -0.57700
N64         N  0.38652066  0.03421431  0.58655339    -0.04600
N65         N  0.35463389  0.06379525  0.59740145    -0.60200
C66         C  0.36891363  0.08557794  0.63528652     0.96600
C67         C  0.36836316  0.87888220  0.63763869     0.96300
N68         N  0.41677910  0.92559297  0.44408009    -0.05800
N69         N  0.40480449  0.89540214  0.41278836    -0.58300
N70         N  0.38955915  0.03450947  0.47436654    -0.03900
N71         N  0.35974544  0.06565219  0.46209706    -0.59600
N72         N  0.41963274  0.02999557  0.44194191    -0.05800
N73         N  0.40896112  0.05654932  0.40764431    -0.58600
N74         N  0.38481225  0.92945435  0.47483132    -0.03600
N75         N  0.35090975  0.90297606  0.46369869    -0.59600
Mn76       Mn  0.38565857  0.98193528  0.53082359     1.18400
C77         C  0.36338884  0.88056299  0.42570681     0.98600
C78         C  0.37142929  0.07964360  0.41990500     0.99300
N79         N  0.52710723  0.92680028  0.61844086    -0.05800
N80         N  0.54020182  0.90036830  0.65204438    -0.62200
N81         N  0.55963272  0.02882047  0.58719768    -0.04600
N82         N  0.59297459  0.05616399  0.59927638    -0.62800
N83         N  0.52755715  0.03078562  0.61791434    -0.05400
N84         N  0.53877381  0.05911630  0.65087419    -0.62400
N85         N  0.55640294  0.92373362  0.58515531    -0.04200
N86         N  0.58828262  0.89440545  0.59546491    -0.63100
Mn87       Mn  0.47215213  0.98014194  0.61805184     1.10700
C88         C  0.57739328  0.87814971  0.63685481     0.99900
C89         C  0.57995001  0.07498627  0.63949029     0.99900
N90         N  0.52909130  0.02836358  0.44492628    -0.05400
N91         N  0.54163328  0.06028035  0.41579351    -0.60700
N92         N  0.55878313  0.92317366  0.47407200    -0.04700
N93         N  0.59162972  0.89497006  0.46180549    -0.57500
N94         N  0.52714605  0.92251459  0.44316331    -0.06000
N95         N  0.53780715  0.89318684  0.41040690    -0.60300
N96         N  0.55733063  0.02776571  0.47879953    -0.05000
N97         N  0.58789562  0.05920663  0.47368422    -0.57500
Mn98       Mn  0.47324291  0.97630900  0.44285175     1.20200
Mn99       Mn  0.55818306  0.97555435  0.53111498     1.10100
Cl100      Cl  0.47219333  0.97824391  0.53073163    -0.85500
C101        C  0.57805974  0.08051662  0.43502273     0.96900
C102        C  0.57813224  0.87543138  0.42225436     0.96700
C103        C  0.59912752  0.33969551  0.89191484    -0.02000
C104        C  0.82770361  0.34198908  0.65646485    -0.02000
C105        C  0.60794720  0.10874034  0.66919688    -0.02000
C106        C  0.83692793  0.11122154  0.89746483    -0.02000
C107        C  0.32517280  0.60671791  0.89716641    -0.02000
C108        C  0.34090972  0.84953817  0.67214532    -0.02000
C109        C  0.09887434  0.61906073  0.65638296    -0.02000
C110        C  0.10434088  0.83613208  0.89565865    -0.02000
C111        C  0.60588096  0.84025061  0.39323104    -0.02000
C112        C  0.82067220  0.61406850  0.40600213    -0.02000
C113        C  0.60556007  0.61381155  0.15096556    -0.02000
C114        C  0.83683048  0.84542235  0.16243182    -0.02000
C115        C  0.60798931  0.60609943  0.89376209    -0.02000
C116        C  0.84198736  0.61437530  0.67141463    -0.02000
C117        C  0.61102458  0.84964347  0.66543666    -0.02000
C118        C  0.82226855  0.86625200  0.89806576    -0.02000
N119        N  0.02014756  0.89066882  0.08222746    -0.05600
N120        N  0.05112576  0.85998188  0.09264351    -0.57700
N121        N  0.91271139  0.92485303  0.10949491    -0.05300
N122        N  0.88172104  0.91545473  0.14000284    -0.59900
N123        N  0.91769299  0.89040696  0.08149965    -0.04900
N124        N  0.89186016  0.85649443  0.09489127    -0.57700
N125        N  0.01658464  0.92124279  0.11471590    -0.04600
N126        N  0.04496230  0.91115007  0.14724775    -0.60200
C127        C  0.06736053  0.87346857  0.13353222     0.96600
C128        C  0.86752505  0.87295124  0.13020106     0.96300
N129        N  0.91694822  0.06655951  0.08160641    -0.05800
N130        N  0.88759488  0.09951812  0.08932363    -0.58300
N131        N  0.01713148  0.02999219  0.11871556    -0.03900
N132        N  0.04241046  0.03831406  0.15436262    -0.59600
N133        N  0.02190778  0.06183100  0.08790976    -0.05800
N134        N  0.05144428  0.09205479  0.10262143    -0.58600
N135        N  0.91428226  0.03593982  0.11371268    -0.03600
N136        N  0.88382523  0.04909345  0.14431942    -0.59600
Mn137      Mn  0.96472251  0.97792955  0.11452680     1.18400
C138        C  0.86586069  0.08841088  0.12808223     0.98600
C139        C  0.06450486  0.07676785  0.14409468     0.99300
N140        N  0.91750805  0.89413588  0.97153556    -0.05800
N141        N  0.88342345  0.86672394  0.96157617    -0.62200
N142        N  0.02284027  0.92061233  0.93943442    -0.04600
N143        N  0.05053627  0.90670274  0.90655270    -0.62800
N144        N  0.02366598  0.89099010  0.97264997    -0.05400
N145        N  0.05363471  0.85866660  0.96381707    -0.62400
N146        N  0.91774880  0.92861341  0.94349601    -0.04200
N147        N  0.88311251  0.92584232  0.91617013    -0.63100
Mn148      Mn  0.97004774  0.89062060  0.02661396     1.10700
C149        C  0.86171497  0.88685509  0.92653044     0.99900
C150        C  0.07133359  0.86869891  0.92258858     0.99900
N151        N  0.02472550  0.06730105  0.97398908    -0.05400
N152        N  0.04889213  0.10274804  0.96074203    -0.60700
N153        N  0.92309568  0.03683465  0.94127700    -0.04700
N154        N  0.89410683  0.04714331  0.90926015    -0.57500
N155        N  0.92206831  0.06795994  0.97340376    -0.06000
N156        N  0.89188541  0.09955259  0.96378472    -0.60300
N157        N  0.02566168  0.03572258  0.94214104    -0.05000
N158        N  0.05097878  0.04993239  0.90796761    -0.57500
Mn159      Mn  0.97205853  0.06632865  0.02954607     1.20200
Mn160      Mn  0.97294796  0.97997183  0.94099761     1.10100
Cl161      Cl  0.97051003  0.97885322  0.02783552    -0.85500
C162        C  0.06555306  0.09219935  0.91888665     0.96900
C163        C  0.87466454  0.08650603  0.92328765     0.96700
C164        C  0.61187712  0.11392421  0.41338329    -0.02000
C165        C  0.83398471  0.12282386  0.15323925    -0.02000
C166        C  0.59330318  0.34377802  0.16967706    -0.02000
C167        C  0.81815262  0.34776990  0.40429431    -0.02000
N168        N  0.01644460  0.39336358  0.47258935    -0.05600
N169        N  0.02674573  0.35955372  0.44479189    -0.57700
N170        N  0.05232024  0.42420086  0.57192029    -0.05300
N171        N  0.08759188  0.41084135  0.59516014    -0.59900
N172        N  0.01953688  0.39461134  0.57591726    -0.04900
N173        N  0.03171840  0.36169459  0.60340223    -0.57700
N174        N  0.04740186  0.42510408  0.46942871    -0.04600
N175        N  0.07808795  0.41303544  0.43861163    -0.60200
C176        C  0.06462287  0.37187160  0.42263141     0.96600
C177        C  0.07393735  0.37264612  0.61616481     0.96300
N178        N  0.02013976  0.56681774  0.57725564    -0.05800
N179        N  0.03111256  0.59912382  0.60630123    -0.58300
N180        N  0.04891723  0.53612181  0.47382300    -0.03900
N181        N  0.08315187  0.54897279  0.44871831    -0.59600
N182        N  0.01736011  0.56733932  0.47344490    -0.05800
N183        N  0.02988403  0.60087873  0.44654477    -0.58600
N184        N  0.05151799  0.53550479  0.57614892    -0.03600
N185        N  0.08392847  0.54732044  0.60431520    -0.59600
Mn186      Mn  0.05031420  0.48023170  0.52277610     1.18400
C187        C  0.07111530  0.58707929  0.62395377     0.98600
C188        C  0.07058194  0.58818694  0.42959829     0.99300
N189        N  0.90937720  0.39574519  0.58270156    -0.05800
N190        N  0.89873904  0.36389051  0.61238266    -0.62200
N191        N  0.87603554  0.42744164  0.47712172    -0.04600
N192        N  0.84316878  0.41854697  0.44855948    -0.62800
N193        N  0.90512262  0.39377532  0.47732532    -0.05400
N194        N  0.89105804  0.36084547  0.44997824    -0.62400
N195        N  0.87702562  0.42611850  0.58143751    -0.04200
N196        N  0.84353361  0.41399278  0.60853025    -0.63100
Mn197      Mn  0.96256357  0.39377981  0.52734433     1.10700
C198        C  0.85781571  0.37589837  0.62959201     0.99900
C199        C  0.85273302  0.37694483  0.43099860     0.99900
N200        N  0.90695063  0.56819596  0.47853124    -0.05400
N201        N  0.89328489  0.60098414  0.45144300    -0.60700
N202        N  0.88154903  0.53659288  0.58394620    -0.04700
N203        N  0.85227423  0.54700682  0.61627572    -0.57500
N204        N  0.91318250  0.56767063  0.58268693    -0.06000
N205        N  0.90592805  0.59922007  0.61409912    -0.60300
N206        N  0.87721680  0.53537679  0.47853048    -0.05000
N207        N  0.84436046  0.54471049  0.45025790    -0.57500
Mn208      Mn  0.96423586  0.56812803  0.52758663     1.20200
Mn209      Mn  0.87764430  0.48155191  0.53032137     1.10100
Cl210      Cl  0.96376759  0.48078486  0.52690628    -0.85500
C211        C  0.85523033  0.58523622  0.43187637     0.96900
C212        C  0.86776460  0.58613636  0.63527498     0.96700
C213        C  0.70006904  0.38940528  0.22577957    -0.05000
C214        C  0.68445649  0.39541616  0.27121718     0.09200
C215        C  0.63739650  0.40267265  0.27674346    -0.02300
C216        C  0.60823397  0.39885970  0.23952089    -0.00600
C217        C  0.62291198  0.37836476  0.19870142    -0.04200
C218        C  0.66930027  0.38438037  0.18970077     0.02800
C219        C  0.71622159  0.39400974  0.31203644     0.09600
C220        C  0.61769715  0.41506624  0.32011624     0.35500
C221        C  0.68539626  0.38589999  0.14342458     0.39000
C222        C  0.75669411  0.41911523  0.31405567    -0.04600
C223        C  0.78916237  0.41008846  0.34807687     0.02600
C224        C  0.77956646  0.37962560  0.38417593    -0.04200
C225        C  0.73330951  0.36990057  0.38929980    -0.00400
C226        C  0.70566493  0.36854671  0.35095030    -0.03000
C227        C  0.76570751  0.45294494  0.28035955     0.36300
C228        C  0.71006187  0.38536954  0.42930652     0.39900
C229        C  0.83218050  0.43212637  0.34523517     0.39000
C230        C  0.66738221  0.33901294  0.35245989     0.36000
C231        C  0.74713019  0.38366941  0.21534048     0.36600
C232        C  0.56907637  0.42768303  0.23968205     0.39900
N233        N  0.86604482  0.45077886  0.34241954    -0.38200
N234        N  0.77238894  0.47798098  0.25131453    -0.39800
N235        N  0.68984680  0.39949105  0.45976527    -0.37500
N236        N  0.63762645  0.31413809  0.35339485    -0.39900
N237        N  0.60170925  0.42534878  0.35439127    -0.39700
N238        N  0.53938904  0.45295741  0.24053713    -0.37300
N239        N  0.69858701  0.38780079  0.10665918    -0.38400
N240        N  0.78459380  0.37926357  0.20625882    -0.40000
C241        C  0.67471096  0.23999433  0.16133988    -0.05000
C242        C  0.69030126  0.23826251  0.11671211     0.09200
C243        C  0.67176802  0.27063335  0.08742715    -0.02300
C244        C  0.63524348  0.29856620  0.10077877    -0.00600
C245        C  0.62738001  0.30758666  0.14740540    -0.04200
C246        C  0.65171803  0.27886333  0.17706315     0.02800
C247        C  0.72667672  0.20399616  0.10311123     0.09600
C248        C  0.69486586  0.28214117  0.04738405     0.35500
C249        C  0.65243598  0.29005504  0.22390318     0.39000
C250        C  0.71880108  0.15664902  0.10591639    -0.04600
C251        C  0.75523128  0.12610450  0.11154528     0.02600
C252        C  0.79964316  0.14285667  0.11684633    -0.04200
C253        C  0.80628158  0.18446558  0.09530390    -0.00400
C254        C  0.77146472  0.21706921  0.09336432    -0.03000
C255        C  0.67347383  0.13935657  0.10643880     0.36300
C256        C  0.84120622  0.18518736  0.06211531     0.39900
C257        C  0.74715978  0.07811256  0.10649940     0.39000
C258        C  0.78404898  0.26415900  0.09005705     0.36000
C259        C  0.67785589  0.20019905  0.18910595     0.36600
C260        C  0.60547089  0.31353932  0.06602515     0.39900
N261        N  0.73861847  0.04033583  0.10038351    -0.38200
N262        N  0.63748868  0.12506970  0.10778804    -0.39800
N263        N  0.87059958  0.18270241  0.03680427    -0.37500
N264        N  0.79450754  0.30185484  0.08832182    -0.39900
N265        N  0.71560189  0.29493896  0.01746365    -0.39700
N266        N  0.58107173  0.32513697  0.03829228    -0.37300
N267        N  0.65156969  0.30398707  0.26030158    -0.38400
N268        N  0.67923156  0.16644451  0.20875180    -0.40000
C269        C  0.87831646  0.18640753  0.25706831    -0.05000
C270        C  0.86919487  0.23197871  0.24471747     0.09200
C271        C  0.86973809  0.24139735  0.19807984    -0.02300
C272        C  0.87308453  0.20554248  0.16555418    -0.00600
C273        C  0.86670445  0.15926797  0.17838675    -0.04200
C274        C  0.87986365  0.15094838  0.22388223     0.02800
C275        C  0.85806500  0.26833191  0.28043207     0.09600
C276        C  0.86801767  0.28800258  0.18310426     0.35500
C277        C  0.89007646  0.10502231  0.23760747     0.39000
C278        C  0.88982502  0.29715234  0.30073013    -0.04600
C279        C  0.87873186  0.32476980  0.33936145     0.02600
C280        C  0.83547963  0.32145828  0.36032998    -0.04200
C281        C  0.80417254  0.29360970  0.33663327    -0.00400
C282        C  0.81402722  0.27483559  0.29450288    -0.03000
C283        C  0.92916504  0.30708126  0.27504338     0.36300
C284        C  0.76125966  0.28077883  0.35501642     0.39900
C285        C  0.91169186  0.35702207  0.35476876     0.39000
C286        C  0.77932567  0.27958618  0.26179252     0.36000
C287        C  0.88213264  0.17464430  0.30416825     0.36600
C288        C  0.90184725  0.21518245  0.12757208     0.39900
N289        N  0.93868339  0.38269468  0.36606236    -0.38200
N290        N  0.95828461  0.31859307  0.25230956    -0.39800
N291        N  0.72779781  0.26792829  0.36972165    -0.37500
N292        N  0.75011909  0.28821275  0.23805478    -0.39900
N293        N  0.86713261  0.32519121  0.17095181    -0.39700
N294        N  0.92656299  0.22482961  0.09895484    -0.37300
N295        N  0.89823891  0.06844799  0.24886366    -0.38400
N296        N  0.88428539  0.16339703  0.34141873    -0.40000
C297        C  0.56254206  0.23551370  0.22983669    -0.05000
C298        C  0.56118134  0.25225030  0.27499502     0.09200
C299        C  0.54843507  0.29851470  0.28034497    -0.02300
C300        C  0.54259800  0.32646694  0.24195358    -0.00600
C301        C  0.55930235  0.31307540  0.19929294    -0.04200
C302        C  0.55649341  0.26528623  0.19267296     0.02800
C303        C  0.57251735  0.22077482  0.31441689     0.09600
C304        C  0.54368509  0.31956585  0.32422331     0.35500
C305        C  0.54961574  0.24697262  0.14777580     0.39000
C306        C  0.61632433  0.20405320  0.31988721    -0.04600
C307        C  0.62683319  0.17541785  0.35546570     0.02600
C308        C  0.59367013  0.15046583  0.37903272    -0.04200
C309        C  0.54901046  0.16653846  0.37417913    -0.00400
C310        C  0.54053680  0.20545049  0.34678510    -0.03000
C311        C  0.65435769  0.21833255  0.29423582     0.36300
C312        C  0.51341949  0.15053690  0.40339858     0.39900
C313        C  0.67281792  0.17526483  0.37063599     0.39000
C314        C  0.50546858  0.23552492  0.36176625     0.36000
C315        C  0.57312536  0.18845062  0.22090037     0.36600
C316        C  0.50506307  0.35716530  0.24240906     0.39900
N317        N  0.70881105  0.17599139  0.38418141    -0.38200
N318        N  0.69019029  0.22543965  0.28139689    -0.39800
N319        N  0.48469381  0.13948223  0.42728904    -0.37500
N320        N  0.47965083  0.25960919  0.37850157    -0.39900
N321        N  0.54024139  0.33762978  0.35887763    -0.39700
N322        N  0.47490327  0.38175598  0.24231032    -0.37300
N323        N  0.54345572  0.23180463  0.11223829    -0.38400
N324        N  0.58074524  0.15066978  0.21356891    -0.40000
C325        C  0.70346660  0.16356933  0.49056359    -0.05000
C326        C  0.70011278  0.21057103  0.47730421     0.09200
C327        C  0.65652287  0.22402344  0.46338554    -0.02300
C328        C  0.62219096  0.19154350  0.45824209    -0.00600
C329        C  0.63281741  0.14467775  0.45330955    -0.04200
C330        C  0.66876884  0.13209283  0.48074101     0.02800
C331        C  0.74002536  0.24397233  0.47379369     0.09600
C332        C  0.64519601  0.27034575  0.45265060     0.35500
C333        C  0.66501957  0.09184337  0.50824988     0.39000
C334        C  0.78043107  0.23121394  0.45117931    -0.04600
C335        C  0.81185340  0.26435888  0.43710187     0.02600
C336        C  0.80088416  0.31122462  0.43958866    -0.04200
C337        C  0.77148295  0.32215985  0.47517058    -0.00400
C338        C  0.73857651  0.29040436  0.48912437    -0.03000
C339        C  0.79023091  0.18464727  0.43990322     0.36300
C340        C  0.77630006  0.36484162  0.49939711     0.39900
C341        C  0.85510260  0.24965172  0.42028317     0.39000
C342        C  0.70358493  0.30886014  0.51748473     0.36000
C343        C  0.74078062  0.14389648  0.51400115     0.36600
C344        C  0.57632425  0.20625899  0.46394980     0.39900
N345        N  0.88920145  0.23666062  0.40690153    -0.38200
N346        N  0.80008302  0.14769327  0.43141916    -0.39800
N347        N  0.77928739  0.39815445  0.52001125    -0.37500
N348        N  0.67722140  0.32937480  0.53783127    -0.39900
N349        N  0.63361060  0.30715086  0.44614525    -0.39700
N350        N  0.54058350  0.21996793  0.47061834    -0.37300
N351        N  0.66319978  0.06002526  0.53084043    -0.38400
N352        N  0.76717778  0.12132083  0.53142451    -0.40000
C353        C  0.75295104  0.05279129  0.23656115    -0.05000
C354        C  0.74209267  0.08712214  0.26864620     0.09200
C355        C  0.76170998  0.12936640  0.26174050    -0.02300
C356        C  0.78160196  0.13921043  0.22043229    -0.00600
C357        C  0.80146811  0.10511110  0.19271040    -0.04200
C358        C  0.78644225  0.05995724  0.20226565     0.02800
C359        C  0.70887238  0.08109435  0.30767822     0.09600
C360        C  0.76749333  0.16148181  0.29778948     0.35500
C361        C  0.79983348  0.02147074  0.17500504     0.39000
C362        C  0.72352726  0.08199025  0.35289958    -0.04600
C363        C  0.69248072  0.07845945  0.38960444     0.02600
C364        C  0.64550511  0.08358611  0.38234191    -0.04200
C365        C  0.63211712  0.07236047  0.33724564    -0.00400
C366        C  0.66277228  0.07398762  0.30034379    -0.03000
C367        C  0.77139524  0.08113662  0.36110841     0.36300
C368        C  0.58623079  0.06116098  0.32756721     0.39900
C369        C  0.70836234  0.05412536  0.42838481     0.39000
C370        C  0.64598604  0.07033192  0.25464840     0.36000
C371        C  0.72599038  0.01258453  0.23564371     0.36600
C372        C  0.77845456  0.18487487  0.20487421     0.39900
N373        N  0.72357470  0.03238140  0.45686813    -0.38200
N374        N  0.80973116  0.07889591  0.36572818    -0.39800
N375        N  0.55037566  0.05081100  0.31767742    -0.37500
N376        N  0.63251807  0.06636170  0.21829858    -0.39900
N377        N  0.77692979  0.18644909  0.32624892    -0.39700
N378        N  0.77581084  0.22005282  0.18859476    -0.37300
N379        N  0.80884839  0.98987807  0.15340547    -0.38400
N380        N  0.70050994  0.98336089  0.23393145    -0.40000
C381        C  0.71909730  0.90011177  0.71701902    -0.05000
C382        C  0.70374210  0.91952774  0.75856241     0.09200
C383        C  0.65742509  0.93116386  0.75923062    -0.02300
C384        C  0.62696695  0.90987112  0.72926326    -0.00600
C385        C  0.64258818  0.88551055  0.69038800    -0.04200
C386        C  0.68896442  0.89147813  0.68124325     0.02800
C387        C  0.73364900  0.92452990  0.80092879     0.09600
C388        C  0.63998438  0.96645046  0.78858582     0.35500
C389        C  0.70288083  0.91065689  0.63873966     0.39000
C390        C  0.77987903  0.93727349  0.79981300    -0.04600
C391        C  0.80834107  0.92911487  0.83716703     0.02600
C392        C  0.79251084  0.90631962  0.87645043    -0.04200
C393        C  0.74541225  0.91121192  0.88266051    -0.00400
C394        C  0.71651432  0.91499882  0.84501219    -0.03000
C395        C  0.80140250  0.95882242  0.76176175     0.36300
C396        C  0.72685976  0.92763451  0.92481555     0.39900
C397        C  0.85356531  0.94660240  0.83429682     0.39000
C398        C  0.67014335  0.90250019  0.85299191     0.36000
C399        C  0.76543826  0.88866247  0.70865376     0.36600
C400        C  0.57981957  0.91230950  0.74074338     0.39900
N401        N  0.88828241  0.96328243  0.82955925    -0.38200
N402        N  0.82489994  0.97430228  0.73474615    -0.39800
N403        N  0.70992180  0.94275191  0.95682175    -0.37500
N404        N  0.63360870  0.89176260  0.86028729    -0.39900
N405        N  0.62292089  0.99410969  0.81050441    -0.39700
N406        N  0.54272291  0.91484886  0.75185875    -0.37300
N407        N  0.71568050  0.92871194  0.60655915    -0.38400
N408        N  0.80248423  0.88042967  0.70043094    -0.40000
C409        C  0.75871847  0.71316531  0.66848971    -0.05000
C410        C  0.73747039  0.71157689  0.62689963     0.09200
C411        C  0.74958337  0.67535940  0.59782908    -0.02300
C412        C  0.78891468  0.64987524  0.60664009    -0.00600
C413        C  0.80434912  0.64659408  0.65204986    -0.04200
C414        C  0.78228729  0.67557389  0.68347660     0.02800
C415        C  0.69990860  0.74481484  0.61851830     0.09600
C416        C  0.71580025  0.65373644  0.57134801     0.35500
C417        C  0.78103285  0.66486289  0.73075977     0.39000
C418        C  0.70872545  0.79024914  0.60642026    -0.04600
C419        C  0.67394131  0.82265874  0.60675761     0.02600
C420        C  0.63436155  0.81407085  0.63122734    -0.04200
C421        C  0.62161902  0.76740998  0.62992741    -0.00400
C422        C  0.65490492  0.73308791  0.62716347    -0.03000
C423        C  0.75371119  0.80536795  0.59710227     0.36300
C424        C  0.57488658  0.75466953  0.63176811     0.39900
C425        C  0.67114166  0.85162139  0.56768853     0.39000
C426        C  0.64286515  0.68621191  0.63445914     0.36000
C427        C  0.76860842  0.75593692  0.68855740     0.36600
C428        C  0.80977805  0.62635979  0.56936297     0.39900
N429        N  0.66914316  0.87420240  0.53592540    -0.38200
N430        N  0.78979960  0.81848613  0.59205071    -0.39800
N431        N  0.53778637  0.74365350  0.63278426    -0.37500
N432        N  0.63367349  0.64849602  0.63935909    -0.39900
N433        N  0.68766613  0.63254828  0.55513071    -0.39700
N434        N  0.82662423  0.60866868  0.53876157    -0.37300
N435        N  0.78003418  0.65240492  0.76771989    -0.38400
N436        N  0.78076286  0.79036505  0.70216064    -0.40000
C437        C  0.87981317  0.73332681  0.70809924    -0.05000
C438        C  0.87104446  0.72910457  0.75507967     0.09200
C439        C  0.87319887  0.68490645  0.77293997    -0.02300
C440        C  0.88221679  0.64708130  0.74479149    -0.00600
C441        C  0.87465888  0.64938425  0.69757755    -0.04200
C442        C  0.88203340  0.69389428  0.67955242     0.02800
C443        C  0.85973295  0.76956078  0.78582455     0.09600
C444        C  0.86560051  0.67684681  0.82039316     0.35500
C445        C  0.88624345  0.69981239  0.63118623     0.39000
C446        C  0.81587607  0.77658245  0.80179056    -0.04600
C447        C  0.80527249  0.81344282  0.83014747     0.02600
C448        C  0.83834519  0.83797076  0.85429292    -0.04200
C449        C  0.88258299  0.83338865  0.83618566    -0.00400
C450        C  0.89200455  0.80147026  0.80060905    -0.03000
C451        C  0.77896048  0.74716507  0.79121697     0.36300
C452        C  0.91823743  0.86383273  0.84876384     0.39900
C453        C  0.75870970  0.82059284  0.83932690     0.39000
C454        C  0.93394269  0.80539534  0.77708277     0.36000
C455        C  0.88276683  0.77796972  0.68831070     0.36600
C456        C  0.91740471  0.61814603  0.76111759     0.39900
N457        N  0.72113349  0.82193244  0.84717819    -0.38200
N458        N  0.74398738  0.73084937  0.78803670    -0.39800
N459        N  0.94828793  0.88751230  0.85561450    -0.37500
N460        N  0.96750727  0.81365901  0.75969953    -0.39900
N461        N  0.85993937  0.66909982  0.85820169    -0.39700
N462        N  0.94617146  0.59668070  0.77590199    -0.37300
N463        N  0.88917917  0.70506741  0.59258591    -0.38400
N464        N  0.88511555  0.81354889  0.67224294    -0.40000
C465        C  0.56975740  0.65650283  0.77820244    -0.05000
C466        C  0.56489863  0.70143835  0.79427443     0.09200
C467        C  0.55393285  0.70697814  0.84054680    -0.02300
C468        C  0.55274296  0.66885637  0.86925898    -0.00600
C469        C  0.57580855  0.62817535  0.85647401    -0.04200
C470        C  0.57618361  0.61989891  0.80878489     0.02800
C471        C  0.57214883  0.74117503  0.76255409     0.09600
C472        C  0.54744880  0.75150510  0.86046376     0.35500
C473        C  0.56947383  0.57505310  0.79044205     0.39000
C474        C  0.53964515  0.77453184  0.75242634    -0.04600
C475        C  0.54811218  0.80805728  0.71885305     0.02600
C476        C  0.59320209  0.81799244  0.70533606    -0.04200
C477        C  0.62569281  0.79015780  0.72660181    -0.00400
C478        C  0.61440380  0.74785143  0.74357464    -0.03000
C479        C  0.49962886  0.77757501  0.77895577     0.36300
C480        C  0.67064017  0.80400777  0.73507429     0.39900
C481        C  0.50950908  0.82788186  0.69823506     0.39000
C482        C  0.64705085  0.71236723  0.73815255     0.36000
C483        C  0.56241920  0.64774971  0.73052838     0.36600
C484        C  0.53348623  0.67402811  0.91401797     0.39900
N485        N  0.47704415  0.84175495  0.68253503    -0.38200
N486        N  0.47034807  0.78199799  0.80402515    -0.39800
N487        N  0.70588915  0.81260980  0.74780565    -0.37500
N488        N  0.67463921  0.68672301  0.72818872    -0.39900
N489        N  0.54235060  0.78668911  0.87725812    -0.39700
N490        N  0.51654709  0.67915195  0.94892619    -0.37300
N491        N  0.56201125  0.54102533  0.77233129    -0.38400
N492        N  0.55441523  0.64054265  0.69301258    -0.40000
C493        C  0.68044344  0.53204552  0.81270663    -0.05000
C494        C  0.72313712  0.55404198  0.81727774     0.09200
C495        C  0.73074155  0.57229125  0.86119448    -0.02300
C496        C  0.69402997  0.58066965  0.89123189    -0.00600
C497        C  0.64885380  0.57471126  0.87658862    -0.00200
C498        C  0.64500990  0.53997959  0.84433600     0.02800
C499        C  0.75718995  0.55773594  0.77685988     0.09600
C500        C  0.77506414  0.58236552  0.87733066     0.35500
C501        C  0.60906628  0.50765107  0.84927297     0.39000
C502        C  0.74052292  0.56692529  0.73259365    -0.04600
C503        C  0.76969834  0.56998959  0.69522921     0.02600
C504        C  0.81564617  0.57902958  0.70197067    -0.04200
C505        C  0.83326818  0.55841836  0.74034580    -0.00400
C506        C  0.80538235  0.55000153  0.77876897    -0.03000
C507        C  0.69442006  0.57944663  0.72452079     0.36300
C508        C  0.87597474  0.53550340  0.73509411     0.39900
C509        C  0.75253281  0.56238196  0.65017581     0.39000
C510        C  0.82787097  0.52965661  0.81688428     0.36000
C511        C  0.67190041  0.50226253  0.77501818     0.36600
C512        C  0.70340139  0.59368110  0.93742772     0.39900
N513        N  0.73850449  0.55486136  0.61459883    -0.38200
N514        N  0.65753128  0.58859624  0.71731426    -0.39800
N515        N  0.90942010  0.51622865  0.73002633    -0.37500
N516        N  0.84692425  0.51180599  0.84572356    -0.39900
N517        N  0.80946948  0.59051773  0.89308451    -0.39700
N518        N  0.71255000  0.60420591  0.97385902    -0.37300
N519        N  0.58033714  0.48182135  0.85367881    -0.38400
N520        N  0.66523834  0.48155494  0.74256150    -0.40000
C521        C  0.66845960  0.72374980  0.88799370    -0.05000
C522        C  0.67766914  0.73831480  0.93162599     0.09200
C523        C  0.65364048  0.71462203  0.96577407    -0.02300
C524        C  0.63054056  0.67227449  0.95628966    -0.00600
C525        C  0.63252679  0.65189527  0.91229601    -0.04200
C526        C  0.65530575  0.67913614  0.87941387     0.02800
C527        C  0.71894286  0.77008105  0.93816031     0.09600
C528        C  0.63852201  0.74160514  0.00307224     0.35500
C529        C  0.66847252  0.66112402  0.83635305     0.39000
C530        C  0.71972203  0.81380038  0.95984103    -0.04600
C531        C  0.75940777  0.84147171  0.95827645     0.02600
C532        C  0.79515334  0.83045656  0.92907735    -0.04200
C533        C  0.79979013  0.78312883  0.92281702    -0.00400
C534        C  0.76125333  0.75511185  0.92112749    -0.03000
C535        C  0.68017269  0.83352392  0.97988826     0.36300
C536        C  0.84416158  0.76373262  0.91922876     0.39900
C537        C  0.76847014  0.87464089  0.99318631     0.39000
C538        C  0.76521271  0.71141386  0.89991347     0.36000
C539        C  0.65501694  0.75748492  0.85611718     0.36600
C540        C  0.60347838  0.65183445  0.99108725     0.39900
N541        N  0.77710258  0.90106667  0.02081113    -0.38200
N542        N  0.64946107  0.85169719  0.99569183    -0.39800
N543        N  0.87995541  0.74885340  0.91794949    -0.37500
N544        N  0.76672936  0.67729725  0.88088130    -0.39900
N545        N  0.62240436  0.76571662  0.02931892    -0.39700
N546        N  0.58067644  0.63646056  0.01870086    -0.37300
N547        N  0.68134142  0.64370717  0.80390793    -0.38400
N548        N  0.64082957  0.78487372  0.83239511    -0.40000
C549        C  0.70031602  0.66757127  0.08533171    -0.05000
C550        C  0.69544806  0.71258682  0.10162742     0.09200
C551        C  0.65189505  0.72730278  0.11318084    -0.02300
C552        C  0.61643732  0.69617100  0.11602328    -0.00600
C553        C  0.62531227  0.64874222  0.11462870    -0.04200
C554        C  0.66348212  0.63709040  0.08766550     0.02800
C555        C  0.73444778  0.74330046  0.11371164     0.09600
C556        C  0.64363862  0.77510760  0.12271593     0.35500
C557        C  0.66816919  0.59225329  0.06787742     0.39000
C558        C  0.76481734  0.76100745  0.08214558    -0.04600
C559        C  0.79634660  0.79533369  0.09437658     0.02600
C560        C  0.80069422  0.81064371  0.14053443    -0.04200
C561        C  0.77162974  0.78809924  0.17171300    -0.00400
C562        C  0.73867070  0.75707985  0.15861068    -0.03000
C563        C  0.76773812  0.73927678  0.03852646     0.36300
C564        C  0.77632227  0.79723200  0.21860735     0.39900
C565        C  0.82620237  0.80821779  0.05868688     0.39000
C566        C  0.70770404  0.73848472  0.19114898     0.36000
C567        C  0.74387972  0.65013209  0.07235685     0.36600
C568        C  0.57421927  0.71359883  0.10027295     0.39900
N569        N  0.84904655  0.81351960  0.02758635    -0.38200
N570        N  0.77255906  0.71838765  0.00579654    -0.39800
N571        N  0.78394302  0.80905858  0.25473598    -0.37500
N572        N  0.68027273  0.72133219  0.21258578    -0.39900
N573        N  0.63798239  0.81324920  0.13011251    -0.39700
N574        N  0.54217435  0.73012984  0.08596984    -0.37300
N575        N  0.67307343  0.55649769  0.05221441    -0.38400
N576        N  0.77850177  0.63545347  0.06230438    -0.40000
C577        C  0.71191930  0.61594533  0.21812328    -0.05000
C578        C  0.70561139  0.58380050  0.25279272     0.09200
C579        C  0.67238579  0.55023303  0.24423526    -0.02300
C580        C  0.64420673  0.55256923  0.20513788    -0.00600
C581        C  0.64774439  0.58983251  0.17552331    -0.04200
C582        C  0.69139896  0.60850046  0.17622500     0.02800
C583        C  0.73711823  0.58108837  0.29383252     0.09600
C584        C  0.66702164  0.51532480  0.27696150     0.35500
C585        C  0.72304144  0.58337517  0.14828382     0.39000
C586        C  0.72021109  0.57958348  0.33883441    -0.04600
C587        C  0.74905860  0.57054422  0.37532003     0.02600
C588        C  0.79466623  0.58146580  0.37149962    -0.04200
C589        C  0.81247752  0.57275916  0.32754264    -0.00400
C590        C  0.78424411  0.57415680  0.28884136    -0.03000
C591        C  0.67321645  0.58562748  0.34903959     0.36300
C592        C  0.85927034  0.56122063  0.32238809     0.39900
C593        C  0.74061410  0.52722202  0.39607038     0.39000
C594        C  0.80422469  0.56778191  0.24452370     0.36000
C595        C  0.74930267  0.64626323  0.21827542     0.36600
C596        C  0.62043614  0.51364595  0.18882056     0.39900
N597        N  0.73451626  0.49176559  0.41140052    -0.38200
N598        N  0.63574922  0.59051972  0.35778739    -0.39800
N599        N  0.89624000  0.55050814  0.31751241    -0.37500
N600        N  0.82044619  0.56211658  0.20934594    -0.39900
N601        N  0.66582625  0.49194323  0.30792584    -0.39700
N602        N  0.60340428  0.48349034  0.17083907    -0.37300
N603        N  0.74870612  0.56197626  0.12786109    -0.38400
N604        N  0.77990499  0.66968278  0.21495784    -0.40000
C605        C  0.87001071  0.73460468  0.21969912    -0.05000
C606        C  0.86770572  0.75081017  0.26468665     0.09200
C607        C  0.87956201  0.79670869  0.27191267    -0.02300
C608        C  0.88528928  0.82601776  0.23454585    -0.00600
C609        C  0.86874604  0.81333655  0.19174209    -0.04200
C610        C  0.87196861  0.76571341  0.18326605     0.02800
C611        C  0.85770233  0.71884147  0.30348084     0.09600
C612        C  0.88758969  0.81368790  0.31702816     0.35500
C613        C  0.87943494  0.74886661  0.13784393     0.39000
C614        C  0.89198764  0.69844445  0.32839097    -0.04600
C615        C  0.88334701  0.66267655  0.35929873     0.02600
C616        C  0.83824598  0.65280287  0.37312030    -0.04200
C617        C  0.80458906  0.67902961  0.35175064    -0.00400
C618        C  0.81383433  0.70786464  0.31561333    -0.03000
C619        C  0.93554202  0.71809996  0.32524986     0.36300
C620        C  0.75823274  0.67559315  0.36477694     0.39900
C621        C  0.92156145  0.63570515  0.37186476     0.39000
C622        C  0.77556493  0.72596021  0.29336496     0.36000
C623        C  0.87324871  0.68634887  0.21102100     0.36600
C624        C  0.92344297  0.85585938  0.23532086     0.39900
N625        N  0.95343314  0.61489441  0.37961244    -0.38200
N626        N  0.96839953  0.73814418  0.32334867    -0.39800
N627        N  0.72064165  0.67481898  0.37292303    -0.37500
N628        N  0.74004642  0.73597167  0.28231814    -0.39900
N629        N  0.89426456  0.82729969  0.35307368    -0.39700
N630        N  0.95503117  0.87843676  0.23586951    -0.37300
N631        N  0.88626710  0.73439373  0.10204619    -0.38400
N632        N  0.87713596  0.64793513  0.20385615    -0.40000
C633        C  0.53221437  0.70580526  0.21408403    -0.05000
C634        C  0.55934216  0.71039215  0.25355170     0.09200
C635        C  0.58893917  0.67358066  0.26114736    -0.02300
C636        C  0.58809486  0.63505994  0.23419339    -0.00600
C637        C  0.57697547  0.63948047  0.18882752    -0.04200
C638        C  0.54054377  0.66975118  0.18204000     0.02800
C639        C  0.55400225  0.74857562  0.28937427     0.09600
C640        C  0.62870776  0.67687767  0.28691765     0.35500
C641        C  0.50913376  0.66074392  0.14604812     0.39000
C642        C  0.54865537  0.73815170  0.33599891    -0.04600
C643        C  0.55383664  0.77193393  0.36989852     0.02600
C644        C  0.57262120  0.81466837  0.35943674    -0.04200
C645        C  0.56587324  0.82855086  0.31384864    -0.00400
C646        C  0.55751259  0.79568540  0.27890964    -0.03000
C647        C  0.54191422  0.69198499  0.35105852     0.36300
C648        C  0.57053550  0.87595965  0.30220688     0.39900
C649        C  0.53845789  0.76194854  0.41512473     0.39000
C650        C  0.55972443  0.81007405  0.23233209     0.36000
C651        C  0.49602332  0.73702922  0.20634057     0.36600
C652        C  0.57288982  0.59460954  0.25677011     0.39900
N653        N  0.52428442  0.75132766  0.44990616    -0.38200
N654        N  0.53809353  0.65560382  0.36503855    -0.39800
N655        N  0.57426389  0.91378398  0.29275259    -0.37500
N656        N  0.56118218  0.82206019  0.19522962    -0.39900
N657        N  0.66403740  0.67694420  0.30217649    -0.39700
N658        N  0.55982417  0.56249061  0.27476010    -0.37300
N659        N  0.48394304  0.65340658  0.11740241    -0.38400
N660        N  0.46750760  0.76254478  0.19974502    -0.40000
C661        C  0.69782346  0.92280105  0.33516486    -0.05000
C662        C  0.72242615  0.89067954  0.31022593     0.09200
C663        C  0.71625788  0.84664243  0.32223714    -0.02300
C664        C  0.67398986  0.83405213  0.33584507    -0.00600
C665        C  0.64607000  0.86270690  0.36366383    -0.04200
C666        C  0.66078318  0.90937840  0.36353994     0.02800
C667        C  0.75120153  0.89979019  0.26891050     0.09600
C668        C  0.75406907  0.82327596  0.34126845     0.35500
C669        C  0.63848991  0.94465485  0.38901186     0.39000
C670        C  0.79752639  0.90780930  0.27185281    -0.04600
C671        C  0.82521577  0.90380033  0.23281634     0.02600
C672        C  0.80892344  0.88271375  0.19242874    -0.04200
C673        C  0.76186210  0.88899156  0.18669485    -0.00400
C674        C  0.73324497  0.89302045  0.22516086    -0.03000
C675        C  0.81751402  0.91739899  0.31524339     0.36300
C676        C  0.74232304  0.88829347  0.14209297     0.39900
C677        C  0.86402306  0.93279757  0.23139293     0.39000
C678        C  0.68543683  0.88696329  0.22009962     0.36000
C679        C  0.72172499  0.96348539  0.34345959     0.36600
C680        C  0.65829048  0.79755131  0.30902229     0.39900
N681        N  0.89390907  0.95766870  0.23104180    -0.38200
N682        N  0.83360931  0.92455577  0.34998023    -0.39800
N683        N  0.72577073  0.88775259  0.10690427    -0.37500
N684        N  0.64723161  0.88264235  0.21624699    -0.39900
N685        N  0.78488816  0.80594336  0.35720247    -0.39700
N686        N  0.64866491  0.77008029  0.28327766    -0.37300
N687        N  0.62171781  0.97438378  0.40838119    -0.38400
N688        N  0.74741305  0.99128005  0.35122933    -0.40000
C689        C  0.65212226  0.75581447  0.49089976    -0.05000
C690        C  0.69491656  0.74661403  0.46937246     0.09200
C691        C  0.70190230  0.77274900  0.43091985    -0.02300
C692        C  0.66299156  0.77604761  0.40527016    -0.00600
C693        C  0.63017731  0.80394431  0.42503388    -0.04200
C694        C  0.62342186  0.79114564  0.47207985     0.02800
C695        C  0.72730067  0.70669572  0.47454131     0.09600
C696        C  0.72452459  0.81533482  0.43923801     0.35500
C697        C  0.58649009  0.80782403  0.49919149     0.39000
C698        C  0.71490855  0.66085008  0.46627204    -0.04600
C699        C  0.74815860  0.62710235  0.45805295     0.02600
C700        C  0.79202327  0.63952895  0.44466427    -0.04200
C701        C  0.80592989  0.68252226  0.46171852    -0.00400
C702        C  0.77407224  0.71526007  0.47692659    -0.03000
C703        C  0.66855453  0.64743465  0.46260133     0.36300
C704        C  0.85296130  0.69438593  0.46209003     0.39900
C705        C  0.74102719  0.58285401  0.47727604     0.39000
C706        C  0.79029188  0.75916544  0.49117101     0.36000
C707        C  0.63213707  0.72437798  0.52177409     0.36600
C708        C  0.64517845  0.73330615  0.39032909     0.39900
N709        N  0.73499964  0.54849644  0.49495956    -0.38200
N710        N  0.63186557  0.63536590  0.45988103    -0.39800
N711        N  0.89023212  0.70479453  0.46263720    -0.37500
N712        N  0.80529010  0.79388145  0.50110289    -0.39900
N713        N  0.74102852  0.85013269  0.44613959    -0.39700
N714        N  0.62996310  0.69799019  0.38402142    -0.37300
N715        N  0.55714374  0.82040386  0.52169756    -0.38400
N716        N  0.61215847  0.69855990  0.54300463    -0.40000
C717        C  0.01332931  0.75667890  0.82985115    -0.05000
C718        C  0.03866555  0.74697947  0.78947719     0.09200
C719        C  0.07955507  0.76913754  0.78812933    -0.02300
C720        C  0.09944032  0.77583219  0.83018474    -0.00600
C721        C  0.07623697  0.80328198  0.86167485    -0.04200
C722        C  0.02916913  0.79096575  0.86179112     0.02800
C723        C  0.03181799  0.70889779  0.75464285     0.09600
C724        C  0.08606717  0.80220632  0.75327954     0.35500
C725        C  0.99847574  0.80654206  0.89629881     0.39000
C726        C  0.02743059  0.71802237  0.70764833    -0.04600
C727        C  0.03721942  0.68406092  0.67480386     0.02600
C728        C  0.06104086  0.64450963  0.68704016    -0.04200
C729        C  0.04941071  0.63003248  0.73144127    -0.00400
C730        C  0.03859830  0.66255491  0.76588850    -0.03000
C731        C  0.01313906  0.76167974  0.69115274     0.36300
C732        C  0.04719422  0.58211089  0.74102684     0.39900
C733        C  0.01282213  0.68558358  0.63275819     0.39000
C734        C  0.03846723  0.64842800  0.81255125     0.36000
C735        C  0.97640435  0.72847018  0.84227996     0.36600
C736        C  0.11306584  0.73345711  0.84969419     0.39900
N737        N  0.99239506  0.68772818  0.59976994    -0.38200
N738        N  0.00236506  0.79547584  0.67474630    -0.39800
N739        N  0.04333181  0.54387269  0.74840964    -0.37500
N740        N  0.03848184  0.63654303  0.84971820    -0.39900
N741        N  0.09014106  0.82872314  0.72497517    -0.39700
N742        N  0.12286950  0.69955930  0.86599459    -0.37300
N743        N  0.97284418  0.81682992  0.92396820    -0.38400
N744        N  0.94892949  0.70447959  0.85532416    -0.40000
C745        C  0.17245101  0.72374091  0.63415248    -0.05000
C746        C  0.21395740  0.70231016  0.62577310     0.09200
C747        C  0.21252165  0.65734383  0.60911016    -0.02300
C748        C  0.17088740  0.63378242  0.60680610    -0.00600
C749        C  0.13123852  0.65168986  0.62748414    -0.04200
C750        C  0.13158833  0.69983301  0.63083933     0.02800
C751        C  0.25672374  0.72886406  0.63511781     0.09600
C752        C  0.25318448  0.63492466  0.59438686     0.35500
C753        C  0.09670583  0.72617363  0.61003775     0.39000
C754        C  0.26479237  0.74179389  0.67958802    -0.04600
C755        C  0.28848421  0.78171232  0.68904416     0.02600
C756        C  0.31219537  0.80685702  0.65527054    -0.04200
C757        C  0.31138266  0.78772534  0.61103097    -0.00400
C758        C  0.28346452  0.74946794  0.60135853    -0.03000
C759        C  0.24928190  0.71337381  0.71621043     0.36300
C760        C  0.34112232  0.80403729  0.57604721     0.39900
C761        C  0.28685084  0.79816856  0.73446863     0.39000
C762        C  0.28844461  0.72686866  0.55879061     0.36000
C763        C  0.17060853  0.77240681  0.64013154     0.36600
C764        C  0.16764301  0.59511862  0.57712147     0.39900
N765        N  0.28486637  0.81515701  0.76940271    -0.38200
N766        N  0.23832218  0.69125296  0.74636623    -0.39800
N767        N  0.36546088  0.81539460  0.54776127    -0.37500
N768        N  0.29563097  0.70845121  0.52514845    -0.39900
N769        N  0.28536207  0.61662032  0.58216936    -0.39700
N770        N  0.16550850  0.56500652  0.55206933    -0.37300
N771        N  0.07224515  0.75085702  0.59254373    -0.38400
N772        N  0.16677839  0.81123646  0.64349818    -0.40000
C773        C  0.18828885  0.85044236  0.79786716    -0.05000
C774        C  0.20346893  0.89516847  0.79597628     0.09200
C775        C  0.18826873  0.92327326  0.83248952    -0.02300
C776        C  0.15226731  0.90861394  0.86181794    -0.00600
C777        C  0.14111318  0.86114272  0.86432295    -0.04200
C778        C  0.17080725  0.83400660  0.83771129     0.02800
C779        C  0.23720227  0.90739243  0.75861486     0.09600
C780        C  0.21279162  0.96299160  0.84547468     0.35500
C781        C  0.18914700  0.79101626  0.85151907     0.39000
C782        C  0.22606219  0.89895004  0.71265264    -0.04600
C783        C  0.25978555  0.88612019  0.68098360     0.02600
C784        C  0.30527495  0.88349285  0.69438977    -0.04200
C785        C  0.31512004  0.91103553  0.73155314    -0.00400
C786        C  0.28318583  0.91707377  0.76680368    -0.03000
C787        C  0.17989789  0.89948035  0.69830672     0.36300
C788        C  0.34856687  0.94473883  0.72320638     0.39900
C789        C  0.24725536  0.87629978  0.63504149     0.39000
C790        C  0.30013836  0.92481885  0.81163454     0.36000
C791        C  0.19052030  0.81883555  0.76101802     0.36600
C792        C  0.13485298  0.94140804  0.89398930     0.39900
N793        N  0.23555236  0.86852383  0.59875527    -0.38200
N794        N  0.14341363  0.90016743  0.68557913    -0.39800
N795        N  0.37565869  0.97001831  0.71159939    -0.37500
N796        N  0.31479577  0.92997643  0.84736161    -0.39900
N797        N  0.23198140  0.99352652  0.86015628    -0.39700
N798        N  0.12272845  0.96863533  0.91963333    -0.37300
N799        N  0.20447663  0.75632296  0.86061695    -0.38400
N800        N  0.18958872  0.79131510  0.73334249    -0.40000
C801        C  0.16980709  0.59945466  0.76562737    -0.05000
C802        C  0.20211921  0.56685195  0.75534253     0.09200
C803        C  0.20015311  0.54826235  0.71122246    -0.02300
C804        C  0.16249812  0.55670266  0.68289583    -0.00600
C805        C  0.13379616  0.59564671  0.69083078    -0.04200
C806        C  0.14571214  0.62012494  0.73097617     0.02800
C807        C  0.24130316  0.56087257  0.78739210     0.09600
C808        C  0.23754359  0.52381252  0.69182476     0.35500
C809        C  0.14054627  0.66856782  0.73494995     0.39000
C810        C  0.23776821  0.53980324  0.83068589    -0.04600
C811        C  0.27289886  0.54419519  0.86239115     0.02600
C812        C  0.30490694  0.57804131  0.85652045    -0.04200
C813        C  0.31576087  0.58586747  0.81025088    -0.00400
C814        C  0.28282594  0.58102261  0.77666478    -0.03000
C815        C  0.19663705  0.52035113  0.84687699     0.36300
C816        C  0.36190205  0.58892425  0.79582364     0.39900
C817        C  0.28031157  0.51053574  0.89681268     0.39000
C818        C  0.29104303  0.59994579  0.73236007     0.36000
C819        C  0.15800918  0.60888160  0.81171595     0.36600
C820        C  0.15728851  0.52393530  0.64706197     0.39900
N821        N  0.28729252  0.48440827  0.92489027    -0.38200
N822        N  0.16398539  0.50718433  0.86327413    -0.39800
N823        N  0.39850429  0.58943668  0.78295605    -0.37500
N824        N  0.29732191  0.61500632  0.69690402    -0.39900
N825        N  0.26614328  0.50739108  0.67102147    -0.39700
N826        N  0.15674944  0.49530806  0.62012780    -0.37300
N827        N  0.13788073  0.70748883  0.73807670    -0.38400
N828        N  0.14733974  0.61248157  0.84904497    -0.40000
C829        C  0.20949696  0.78611259  0.95461652    -0.05000
C830        C  0.19586921  0.74147897  0.96670433     0.09200
C831        C  0.14871414  0.73803009  0.97440611    -0.02300
C832        C  0.11787585  0.76700695  0.95201064    -0.00600
C833        C  0.13261109  0.80782729  0.93179510    -0.04200
C834        C  0.17709930  0.82021904  0.94481013     0.02800
C835        C  0.22773947  0.69908888  0.96405454     0.09600
C836        C  0.13052720  0.71166456  0.01105270     0.35500
C837        C  0.19045822  0.86715588  0.94929929     0.39000
C838        C  0.27404459  0.69886955  0.97688157    -0.04600
C839        C  0.30430581  0.66441111  0.96135715     0.02600
C840        C  0.28992523  0.62820629  0.93320210    -0.04200
C841        C  0.24282631  0.62065854  0.93536707    -0.00400
C842        C  0.21250820  0.65669918  0.94636707    -0.03000
C843        C  0.29271666  0.73180910  0.00746144     0.36300
C844        C  0.22568193  0.57586058  0.94416054     0.39900
C845        C  0.35126986  0.66688395  0.97359965     0.39000
C846        C  0.16518216  0.64694520  0.94276767     0.36000
C847        C  0.25599310  0.79848861  0.94961840     0.36600
C848        C  0.07115269  0.75457730  0.95357274     0.39900
N849        N  0.38854098  0.66889212  0.98366345    -0.38200
N850        N  0.31299620  0.75625755  0.03002410    -0.39800
N851        N  0.20897156  0.54199703  0.95425140    -0.37500
N852        N  0.12773430  0.63719377  0.94125999    -0.39900
N853        N  0.11084249  0.69378897  0.03955998    -0.39700
N854        N  0.03498634  0.74123667  0.95734323    -0.37300
N855        N  0.20329363  0.90373739  0.95483148    -0.38400
N856        N  0.29267274  0.81072761  0.94690364    -0.40000
C857        C  0.40229248  0.69144967  0.82750005    -0.05000
C858        C  0.37155789  0.72591119  0.81547664     0.09200
C859        C  0.33001465  0.72429142  0.83716765    -0.02300
C860        C  0.31499275  0.68382201  0.85614078    -0.00600
C861        C  0.34563461  0.65079756  0.87325313    -0.04200
C862        C  0.39148355  0.65926129  0.86184256     0.02800
C863        C  0.37958940  0.76079411  0.77815535     0.09600
C864        C  0.30519678  0.76498493  0.84617953     0.35500
C865        C  0.42781974  0.63375711  0.88049622     0.39000
C866        C  0.38647177  0.74752497  0.73244615    -0.04600
C867        C  0.39009826  0.78068310  0.69804757     0.02600
C868        C  0.37586741  0.82616028  0.70643648    -0.04200
C869        C  0.38294982  0.84017871  0.75179256    -0.00400
C870        C  0.38131154  0.80813783  0.78756911    -0.03000
C871        C  0.38623041  0.70019149  0.71933992     0.36300
C872        C  0.41022584  0.87979184  0.75942102     0.39900
C873        C  0.40621423  0.76751078  0.65366513     0.39000
C874        C  0.38542510  0.82411858  0.83379805     0.36000
C875        C  0.44226178  0.68465053  0.80102029     0.36600
C876        C  0.26804038  0.67455091  0.85082930     0.39900
N877        N  0.42041869  0.75614237  0.61895463    -0.38200
N878        N  0.38643581  0.66265213  0.70783194    -0.39800
N879        N  0.43370540  0.91014453  0.76638211    -0.37500
N880        N  0.38873501  0.83705688  0.87058908    -0.39900
N881        N  0.28779271  0.79877486  0.85556663    -0.39700
N882        N  0.23080976  0.66659348  0.84465329    -0.37300
N883        N  0.45840281  0.61440428  0.89426003    -0.38400
N884        N  0.47202105  0.67661060  0.77729542    -0.40000
C885        C  0.67928473  0.09367790  0.77710962    -0.05000
C886        C  0.70643498  0.05572881  0.76973139     0.09200
C887        C  0.69791845  0.03176015  0.72845880    -0.02300
C888        C  0.65888913  0.04177899  0.70285209    -0.00600
C889        C  0.64140980  0.08660210  0.70440221    -0.04200
C890        C  0.65880891  0.11409331  0.74009745     0.02800
C891        C  0.74710605  0.05039635  0.80059543     0.09600
C892        C  0.73132453  0.00573390  0.70494336     0.35500
C893        C  0.65780680  0.16298364  0.73880723     0.39000
C894        C  0.74411568  0.03799653  0.84739788    -0.04600
C895        C  0.78046420  0.04606899  0.87705323     0.02600
C896        C  0.81490951  0.07472303  0.86403662    -0.04200
C897        C  0.82469642  0.07249161  0.81675928    -0.00400
C898        C  0.78990351  0.06440956  0.78540279    -0.03000
C899        C  0.70380762  0.02102926  0.86783826     0.36300
C900        C  0.86989824  0.07907700  0.80034392     0.39900
C901        C  0.79092622  0.01504093  0.91292262     0.39000
C902        C  0.79799271  0.07344708  0.73816545     0.36000
C903        C  0.65472909  0.09573218  0.81881270     0.36600
C904        C  0.64294065  0.00847449  0.67093023     0.39900
N905        N  0.80241085  0.99085211  0.94123128    -0.38200
N906        N  0.67256189  0.00893193  0.88754765    -0.39800
N907        N  0.90580560  0.08380742  0.78650618    -0.37500
N908        N  0.80490768  0.07984573  0.70029791    -0.39900
N909        N  0.75586842  0.98813405  0.68009762    -0.39700
N910        N  0.63052162  0.98139978  0.64559976    -0.37300
N911        N  0.65779543  0.20204336  0.73600947    -0.38400
N912        N  0.63306138  0.09433510  0.85122186    -0.40000
C913        C  0.77601675  0.25104103  0.58175355    -0.05000
C914        C  0.73083166  0.25013958  0.60019759     0.09200
C915        C  0.71607350  0.29198578  0.61949944    -0.02300
C916        C  0.74595847  0.32910179  0.62355049    -0.00600
C917        C  0.79310584  0.32136216  0.62096354    -0.04200
C918        C  0.80470212  0.28865147  0.58926837     0.02800
C919        C  0.70051938  0.20761768  0.60420125     0.09600
C920        C  0.67177639  0.29659700  0.63892778     0.35500
C921        C  0.84157612  0.29808835  0.55874344     0.39000
C922        C  0.71682666  0.16738984  0.62419782    -0.04600
C923        C  0.68750825  0.13154555  0.63525994     0.02600
C924        C  0.64026943  0.13826199  0.63723785    -0.04200
C925        C  0.62609396  0.16881030  0.60409496    -0.00400
C926        C  0.65402990  0.20589375  0.59126948    -0.03000
C927        C  0.76394005  0.16016076  0.63141608     0.36300
C928        C  0.58845455  0.15635226  0.57604756     0.39900
C929        C  0.70456395  0.08655829  0.62604976     0.39000
C930        C  0.63195531  0.24156922  0.56691504     0.36000
C931        C  0.79788283  0.21491029  0.55749503     0.36600
C932        C  0.72843256  0.37437974  0.63128887     0.39900
N933        N  0.71947548  0.05192496  0.61522762    -0.38200
N934        N  0.80163015  0.15328708  0.63634158    -0.39800
N935        N  0.55877677  0.14593700  0.55336987    -0.37500
N936        N  0.60966431  0.26838750  0.54966209    -0.39900
N937        N  0.63603260  0.30019872  0.65364298    -0.39700
N938        N  0.71418770  0.41049888  0.63692460    -0.37300
N939        N  0.87047561  0.30509944  0.53359965    -0.38400
N940        N  0.82275420  0.19072809  0.53933691    -0.40000
C941        C  0.82607026  0.19295488  0.79844765    -0.05000
C942        C  0.86776704  0.21423276  0.79327871     0.09200
C943        C  0.90062235  0.20427071  0.82635732    -0.02300
C944        C  0.89421275  0.16815181  0.85733304    -0.00600
C945        C  0.85063711  0.15046763  0.86437256    -0.04200
C946        C  0.81595789  0.16973085  0.83790777     0.02800
C947        C  0.87479257  0.24709930  0.75476045     0.09600
C948        C  0.93879969  0.23283639  0.83328613     0.35500
C949        C  0.76946444  0.15882380  0.84550942     0.39000
C950        C  0.87910905  0.29422098  0.76226940    -0.04600
C951        C  0.87830696  0.32448738  0.72529011     0.02600
C952        C  0.86229310  0.30957955  0.68231326    -0.04200
C953        C  0.87035578  0.26283579  0.67320821    -0.00400
C954        C  0.87460395  0.23172921  0.70942768    -0.03000
C955        C  0.87975525  0.31238977  0.80782695     0.36300
C956        C  0.88775564  0.24817234  0.63004737     0.39900
C957        C  0.88951727  0.37168201  0.73261513     0.39000
C958        C  0.87788001  0.18365025  0.69977595     0.36000
C959        C  0.79442429  0.18662361  0.76246618     0.36600
C960        C  0.93136821  0.15393015  0.88490512     0.39900
N961        N  0.89920431  0.40909648  0.73907329    -0.38200
N962        N  0.88000055  0.32716866  0.84411412    -0.39800
N963        N  0.90427022  0.23405812  0.59740726    -0.37500
N964        N  0.88055724  0.14526090  0.69197173    -0.39900
N965        N  0.96887272  0.25435336  0.84469247    -0.39700
N966        N  0.96084800  0.14407257  0.90796402    -0.37300
N967        N  0.73240503  0.14896492  0.84865088    -0.38400
N968        N  0.76633226  0.17383649  0.73900548    -0.40000
C969        C  0.52153498  0.24009736  0.84647504    -0.05000
C970        C  0.55412719  0.21654473  0.82097951     0.09200
C971        C  0.59747587  0.23159540  0.82574433    -0.02300
C972        C  0.60429452  0.27735205  0.83073483    -0.00600
C973        C  0.57590392  0.30238891  0.86084878    -0.04200
C974        C  0.53299771  0.28188785  0.86881421     0.02800
C975        C  0.54546289  0.18699937  0.78016844     0.09600
C976        C  0.62780276  0.20345806  0.84888064     0.35500
C977        C  0.50109617  0.30180299  0.89973344     0.39000
C978        C  0.54528651  0.20635690  0.73675359    -0.04600
C979        C  0.55815318  0.18066846  0.69789043     0.02600
C980        C  0.57264546  0.13468022  0.70197318    -0.04200
C981        C  0.55884495  0.11344495  0.74368036    -0.00400
C982        C  0.54760707  0.13967398  0.78268160    -0.03000
C983        C  0.53035960  0.25281819  0.73152199     0.36300
C984        C  0.55632420  0.06450010  0.74695979     0.39900
C985        C  0.54675394  0.20025985  0.65504254     0.39000
C986        C  0.53698235  0.11820937  0.82526249     0.36000
C987        C  0.48111330  0.21659508  0.85824484     0.36600
C988        C  0.61247307  0.29259490  0.78576886     0.39900
N989        N  0.53420272  0.21926532  0.62345373    -0.38200
N990        N  0.51870471  0.28966184  0.72528670    -0.39800
N991        N  0.55288664  0.02553231  0.74922240    -0.37500
N992        N  0.52792537  0.10139199  0.85930922    -0.39900
N993        N  0.65252095  0.18285177  0.86996660    -0.39700
N994        N  0.61849036  0.29916008  0.74781896    -0.37300
N995        N  0.47643965  0.31767962  0.92557381    -0.38400
N996        N  0.44951835  0.19788134  0.87056099    -0.40000
C997        C  0.70714840  0.27387297  0.91114064    -0.05000
C998        C  0.69725276  0.23658979  0.93959258     0.09200
C999        C  0.65365983  0.23753247  0.95974586    -0.02300
C1000       C  0.62124491  0.27094309  0.94668686    -0.00600
C1001       C  0.63401167  0.30968683  0.92051015    -0.04200
C1002       C  0.68089988  0.31330506  0.91446206     0.02800
C1003       C  0.73344905  0.20038919  0.94893469     0.09600
C1004       C  0.64199209  0.20686121  0.99577652     0.35500
C1005       C  0.70291862  0.34727994  0.94176321     0.39000
C1006       C  0.77872162  0.21338513  0.95639608    -0.04600
C1007       C  0.81422807  0.18290697  0.94650219     0.02600
C1008       C  0.80544818  0.13687054  0.93355119    -0.04200
C1009       C  0.76227511  0.12183529  0.94598637    -0.00400
C1010       C  0.72581760  0.15261618  0.94764844    -0.03000
C1011       C  0.79044323  0.25887074  0.97117370     0.36300
C1012       C  0.75828576  0.08262125  0.97452631     0.39900
C1013       C  0.85916646  0.20146956  0.94669796     0.39000
C1014       C  0.68170322  0.13277583  0.94707371     0.36000
C1015       C  0.74819177  0.27647426  0.88507923     0.36600
C1016       C  0.57574094  0.26452208  0.96191921     0.39900
N1017       N  0.89359712  0.21924847  0.94849533    -0.38200
N1018       N  0.80241639  0.29465381  0.98180263    -0.39800
N1019       N  0.75340342  0.05257958  0.99898716    -0.37500
N1020       N  0.64710523  0.11527899  0.94694217    -0.39900
N1021       N  0.63113660  0.18314343  0.02474819    -0.39700
N1022       N  0.54058988  0.25684250  0.97650201    -0.37300
N1023       N  0.72158460  0.37342653  0.96405118    -0.38400
N1024       N  0.78130652  0.27894088  0.86479982    -0.40000
C1025       C  0.73890274  0.33033597  0.75345704    -0.05000
C1026       C  0.72918453  0.37477554  0.76581206     0.09200
C1027       C  0.75729439  0.40893547  0.74954273    -0.02300
C1028       C  0.78848558  0.40148183  0.71415267    -0.00600
C1029       C  0.79571585  0.35695287  0.69734916    -0.04200
C1030       C  0.77097724  0.32155966  0.71982630     0.02800
C1031       C  0.69126579  0.38517340  0.79810956     0.09600
C1032       C  0.76143452  0.44659175  0.77882711     0.35500
C1033       C  0.77352787  0.27583837  0.70358946     0.39000
C1034       C  0.69876110  0.39407494  0.84438909    -0.04600
C1035       C  0.66148672  0.39828380  0.87329696     0.02600
C1036       C  0.62223224  0.37609527  0.86066690    -0.04200
C1037       C  0.61110890  0.38357076  0.81500811    -0.00400
C1038       C  0.64644206  0.38781451  0.78289849    -0.03000
C1039       C  0.74336229  0.39439766  0.86305539     0.36300
C1040       C  0.56477489  0.38557421  0.80142578     0.39900
C1041       C  0.66103753  0.42987282  0.91085961     0.39000
C1042       C  0.63671862  0.39109755  0.73514970     0.36000
C1043       C  0.71898333  0.29292166  0.77770784     0.36600
C1044       C  0.81001237  0.44028227  0.69483685     0.39900
N1045       N  0.66043581  0.45563208  0.94050322    -0.38200
N1046       N  0.77911695  0.39454544  0.87778821    -0.39800
N1047       N  0.52778979  0.38804102  0.79052447    -0.37500
N1048       N  0.62842369  0.39393218  0.69716674    -0.39900
N1049       N  0.76210945  0.46944711  0.81027095    -0.39700
N1050       N  0.82581174  0.47227871  0.67923131    -0.37300
N1051       N  0.77483271  0.24119200  0.68571550    -0.38400
N1052       N  0.70535752  0.26172053  0.79673590    -0.40000
C1053       C  0.21002709  0.66406211  0.45641800    -0.05000
C1054       C  0.19981488  0.71121426  0.45400499     0.09200
C1055       C  0.15372628  0.72306539  0.45852124    -0.02300
C1056       C  0.12082939  0.68873861  0.45780185    -0.00600
C1057       C  0.13147341  0.64578862  0.44060112    -0.04200
C1058       C  0.17584690  0.63155094  0.45038810     0.02800
C1059       C  0.23665376  0.74613780  0.44561134     0.09600
C1060       C  0.13844572  0.76956708  0.45884023     0.35500
C1061       C  0.18709962  0.58401642  0.45437694     0.39000
C1062       C  0.26822868  0.73957008  0.41033033    -0.04600
C1063       C  0.30932393  0.76205712  0.41303330     0.02600
C1064       C  0.31012221  0.80767901  0.42866105    -0.04200
C1065       C  0.28007555  0.81481684  0.46626581    -0.00400
C1066       C  0.24452549  0.78343818  0.47508203    -0.03000
C1067       C  0.26525993  0.70165181  0.37929664     0.36300
C1068       C  0.28345714  0.85342242  0.49615242     0.39900
C1069       C  0.34131522  0.73231386  0.43439899     0.39000
C1070       C  0.21648402  0.78955766  0.51456119     0.36000
C1071       C  0.25548076  0.64776922  0.46176955     0.36600
C1072       C  0.08643579  0.68952256  0.49197638     0.39900
N1073       N  0.36568182  0.70817056  0.45273812    -0.38200
N1074       N  0.26382363  0.67077070  0.35508018    -0.39800
N1075       N  0.28387887  0.88414216  0.52063964    -0.37500
N1076       N  0.19334704  0.79440342  0.54558669    -0.39900
N1077       N  0.12567596  0.80663407  0.45923750    -0.39700
N1078       N  0.05905015  0.68753872  0.51960812    -0.37300
N1079       N  0.19870404  0.54690918  0.45914617    -0.38400
N1080       N  0.29114986  0.63285392  0.46492020    -0.40000
C1081       C  0.05905149  0.72856842  0.34844205    -0.05000
C1082       C  0.06204608  0.71527180  0.30219956     0.09200
C1083       C  0.05895088  0.66823496  0.29252322    -0.02300
C1084       C  0.05963502  0.63629767  0.32823762    -0.00600
C1085       C  0.06940746  0.65044432  0.37321977    -0.04200
C1086       C  0.05734640  0.69560737  0.38286991     0.02800
C1087       C  0.06444099  0.75118327  0.26566818     0.09600
C1088       C  0.05845485  0.65185264  0.24633289     0.35500
C1089       C  0.02517079  0.70328363  0.41873100     0.39000
C1090       C  0.09850357  0.78387328  0.26777044    -0.04600
C1091       C  0.09085318  0.82541620  0.24800899     0.02600
C1092       C  0.07399939  0.82360075  0.20397655    -0.04200
C1093       C  0.03560799  0.79526685  0.20081578    -0.00400
C1094       C  0.03060147  0.75883159  0.23251844    -0.03000
C1095       C  0.14432262  0.77167339  0.27425590     0.36300
C1096       C  0.00208399  0.80304119  0.16673132     0.39900
C1097       C  0.06563680  0.85529857  0.27765538     0.39000
C1098       C  0.99470595  0.72700939  0.22708556     0.36000
C1099       C  0.05082625  0.77537494  0.36118227     0.36600
C1100       C  0.05301703  0.58877239  0.31834152     0.39900
N1101       N  0.04475581  0.87914860  0.30076377    -0.38200
N1102       N  0.18206175  0.76393782  0.27714148    -0.39800
N1103       N  0.97482908  0.80875061  0.13981059    -0.37500
N1104       N  0.96757114  0.69976142  0.22190939    -0.39900
N1105       N  0.05811979  0.63811488  0.20965843    -0.39700
N1106       N  0.04696445  0.55108787  0.30953863    -0.37300
N1107       N  0.99785745  0.70996804  0.44584159    -0.38400
N1108       N  0.04273095  0.81186717  0.37324158    -0.40000
C1109       C  0.21749232  0.86288585  0.34404209    -0.05000
C1110       C  0.22830315  0.88658768  0.30425220     0.09200
C1111       C  0.26936240  0.91099728  0.30441823    -0.02300
C1112       C  0.29964960  0.90734366  0.34123341    -0.00600
C1113       C  0.29319327  0.87346005  0.37395294    -0.04200
C1114       C  0.24711781  0.86339275  0.38096149     0.02800
C1115       C  0.19729431  0.88630060  0.26327336     0.09600
C1116       C  0.28219808  0.93812005  0.26631601     0.35500
C1117       C  0.22625749  0.88243416  0.42103794     0.39000
C1118       C  0.15671040  0.91111239  0.26127041    -0.04600
C1119       C  0.12948526  0.90971191  0.22165034     0.02600
C1120       C  0.13906424  0.87786322  0.18600806    -0.04200
C1121       C  0.18511888  0.86584284  0.18394853    -0.00400
C1122       C  0.21034425  0.86296807  0.22391524    -0.03000
C1123       C  0.13834334  0.93156187  0.30179555     0.36300
C1124       C  0.21089899  0.88408111  0.14693073     0.39900
C1125       C  0.08958580  0.93729632  0.22140372     0.39000
C1126       C  0.25232484  0.83938582  0.22332866     0.36000
C1127       C  0.17340929  0.84442925  0.35095168     0.36600
C1128       C  0.33358036  0.94152197  0.34824192     0.39900
N1129       N  0.05765078  0.95949656  0.22276633    -0.38200
N1130       N  0.12059730  0.94558124  0.33380669    -0.39800
N1131       N  0.23246955  0.90024919  0.11874839    -0.37500
N1132       N  0.28630722  0.82107766  0.22490991    -0.39900
N1133       N  0.29494837  0.95907043  0.23611507    -0.39700
N1134       N  0.36084298  0.96881999  0.35341575    -0.37300
N1135       N  0.20786112  0.89927665  0.45132116    -0.38400
N1136       N  0.13816799  0.83040205  0.35850690    -0.40000
C1137       C  0.33104128  0.70500853  0.25962870    -0.05000
C1138       C  0.37556787  0.70913187  0.27324762     0.09200
C1139       C  0.40618452  0.67762714  0.25516401    -0.02300
C1140       C  0.39471784  0.64715875  0.21935054    -0.00600
C1141       C  0.34991777  0.64490859  0.20198732    -0.04200
C1142       C  0.31837982  0.67369039  0.22582288     0.02800
C1143       C  0.38816755  0.75035505  0.30184968     0.09600
C1144       C  0.44842862  0.67099343  0.27655972     0.35500
C1145       C  0.27218447  0.67481857  0.21302549     0.39000
C1146       C  0.40285221  0.74912803  0.34727186    -0.04600
C1147       C  0.39651647  0.78812105  0.37550892     0.02600
C1148       C  0.36624189  0.82258332  0.36187648    -0.04200
C1149       C  0.36807850  0.83019799  0.31433920    -0.00400
C1150       C  0.37792999  0.79356642  0.28468928    -0.03000
C1151       C  0.42121372  0.70819223  0.36621772     0.36300
C1152       C  0.38149051  0.87382059  0.29716922     0.39900
C1153       C  0.41775786  0.79145130  0.41924444     0.39000
C1154       C  0.37955925  0.80064438  0.23626983     0.36000
C1155       C  0.29781364  0.73436414  0.28070471     0.36600
C1156       C  0.43034736  0.61681424  0.20607869     0.39900
N1157       N  0.43398376  0.79478011  0.45446709    -0.38200
N1158       N  0.43555927  0.67567870  0.38238036    -0.39800
N1159       N  0.39473244  0.90673480  0.28074836    -0.37500
N1160       N  0.38081972  0.80724141  0.19781179    -0.39900
N1161       N  0.48172087  0.65819931  0.29094611    -0.39700
N1162       N  0.46123713  0.59347857  0.20123675    -0.37300
N1163       N  0.23625600  0.67777537  0.19975596    -0.38400
N1164       N  0.27296383  0.75892922  0.29827321    -0.40000
C1165       C  0.17735345  0.62394252  0.29969401    -0.05000
C1166       C  0.19504313  0.58080791  0.29266656     0.09200
C1167       C  0.18412431  0.54703508  0.32439003    -0.02300
C1168       C  0.15185531  0.55597514  0.35899677    -0.00600
C1169       C  0.13794170  0.60193656  0.36844724    -0.04200
C1170       C  0.15893344  0.63561353  0.34116694     0.02800
C1171       C  0.22972520  0.57430762  0.25626010     0.09600
C1172       C  0.20688770  0.50358733  0.32266255     0.35500
C1173       C  0.15904343  0.68347310  0.35253873     0.39000
C1174       C  0.27512313  0.56879726  0.26746195    -0.04600
C1175       C  0.30781201  0.56669536  0.23299299     0.02600
C1176       C  0.29694438  0.58027700  0.18823478    -0.04200
C1177       C  0.25162147  0.57264843  0.17631232    -0.00400
C1178       C  0.21786279  0.57299069  0.21026643    -0.03000
C1179       C  0.28882603  0.56846810  0.31434370     0.36300
C1180       C  0.24275126  0.54478607  0.13719446     0.39900
C1181       C  0.35238867  0.55148442  0.24412967     0.39000
C1182       C  0.17130510  0.56610693  0.19858855     0.36000
C1183       C  0.16824356  0.65399580  0.26304930     0.36600
C1184       C  0.13982812  0.51764998  0.38628331     0.39900
N1185       N  0.38711680  0.53772945  0.25435073    -0.38200
N1186       N  0.29976321  0.56859737  0.35175110    -0.39800
N1187       N  0.23448531  0.52019048  0.10782431    -0.37500
N1188       N  0.13418023  0.55908548  0.19031322    -0.39900
N1189       N  0.22568494  0.46929008  0.32305894    -0.39700
N1190       N  0.13441488  0.48514642  0.40728047    -0.37300
N1191       N  0.16045220  0.72185304  0.36041008    -0.38400
N1192       N  0.15553363  0.67902999  0.23625676    -0.40000
C1193       C  0.23636207  0.66728913  0.08842693    -0.05000
C1194       C  0.23801396  0.71317631  0.10457066     0.09200
C1195       C  0.28100336  0.72711824  0.12002993    -0.02300
C1196       C  0.31613446  0.69479683  0.12648920    -0.00600
C1197       C  0.30712589  0.64731250  0.12618797    -0.04200
C1198       C  0.27192345  0.63625108  0.09627707     0.02800
C1199       C  0.19612570  0.74457837  0.10800610     0.09600
C1200       C  0.29066033  0.77430171  0.12851058     0.35500
C1201       C  0.27710234  0.59999947  0.06353352     0.39000
C1202       C  0.15690776  0.72974794  0.13082288    -0.04600
C1203       C  0.12042394  0.75958910  0.13981660     0.02600
C1204       C  0.12465783  0.80708431  0.13308160    -0.04200
C1205       C  0.15545735  0.81798629  0.09838580    -0.00400
C1206       C  0.19283043  0.78899056  0.08877328    -0.03000
C1207       C  0.15029186  0.68230415  0.14009038     0.36300
C1208       C  0.14921586  0.85943827  0.07292070     0.39900
C1209       C  0.07685094  0.73896048  0.13531518     0.39000
C1210       C  0.22789317  0.80818609  0.06151444     0.36000
C1211       C  0.19951241  0.64907662  0.06285793     0.36600
C1212       C  0.36173306  0.71024360  0.13175116     0.39900
N1213       N  0.04359998  0.71985038  0.12944436    -0.38200
N1214       N  0.14266601  0.64441435  0.14577207    -0.39800
N1215       N  0.14427609  0.89231852  0.05239035    -0.37500
N1216       N  0.25474099  0.82864634  0.04221357    -0.39900
N1217       N  0.30027282  0.81201893  0.13288671    -0.39700
N1218       N  0.39825816  0.72246493  0.13527439    -0.37300
N1219       N  0.27928684  0.57210196  0.03596118    -0.38400
N1220       N  0.17309077  0.62776001  0.04394310    -0.40000
C1221       C  0.20474579  0.37167656  0.72029895    -0.05000
C1222       C  0.19591724  0.41192252  0.74406609     0.09200
C1223       C  0.15467290  0.43330295  0.73321183    -0.02300
C1224       C  0.12619212  0.41517431  0.69864175    -0.00600
C1225       C  0.13224492  0.36927939  0.68266629    -0.04200
C1226       C  0.16924297  0.34662796  0.70219735     0.02800
C1227       C  0.22357559  0.42192408  0.78671712     0.09600
C1228       C  0.13994253  0.47307650  0.75763832     0.35500
C1229       C  0.17118405  0.29791330  0.70511708     0.39000
C1230       C  0.27090327  0.42805376  0.78577139    -0.04600
C1231       C  0.29769799  0.41730124  0.82398086     0.02600
C1232       C  0.27812165  0.39914828  0.86391062    -0.04200
C1233       C  0.23143864  0.40829551  0.86868191    -0.00400
C1234       C  0.20420233  0.41522133  0.83003769    -0.03000
C1235       C  0.29424304  0.44060478  0.74490556     0.36300
C1236       C  0.21073829  0.41424440  0.91259925     0.39900
C1237       C  0.34583341  0.42171589  0.81997677     0.39000
C1238       C  0.15606664  0.41120195  0.83504819     0.36000
C1239       C  0.24997556  0.35886896  0.70893254     0.36600
C1240       C  0.09032572  0.44413669  0.68344141     0.39900
N1241       N  0.38396131  0.42624869  0.81488082    -0.38200
N1242       N  0.31717727  0.44792223  0.71422450    -0.39800
N1243       N  0.19147162  0.42078318  0.94602985    -0.37500
N1244       N  0.11771972  0.40830441  0.83970577    -0.39900
N1245       N  0.12500849  0.50384205  0.77678230    -0.39700
N1246       N  0.06286907  0.46927450  0.67210194    -0.37300
N1247       N  0.17219183  0.25911681  0.70977982    -0.38400
N1248       N  0.28639345  0.35117659  0.69790245    -0.40000
C1249       C  0.24468189  0.25669554  0.91997535    -0.05000
C1250       C  0.21911384  0.25685991  0.95979130     0.09200
C1251       C  0.22172229  0.29998270  0.98402512    -0.02300
C1252       C  0.25319290  0.33443103  0.96834471    -0.00600
C1253       C  0.26962176  0.33155928  0.92186805    -0.04200
C1254       C  0.24480986  0.29849627  0.89865502     0.02800
C1255       C  0.18432690  0.21838130  0.96374313     0.09600
C1256       C  0.18969333  0.31291783  0.01847414     0.35500
C1257       C  0.19944452  0.31335477  0.88868466     0.39000
C1258       C  0.19824873  0.17212501  0.95883659    -0.04600
C1259       C  0.16901908  0.13870438  0.94069946     0.02600
C1260       C  0.12489279  0.15034192  0.92838004    -0.04200
C1261       C  0.10765786  0.19054374  0.94975320    -0.00400
C1262       C  0.13730102  0.22609304  0.96258858    -0.03000
C1263       C  0.24245818  0.15815688  0.97282278     0.36300
C1264       C  0.05984956  0.19884495  0.95243314     0.39900
C1265       C  0.18357699  0.09194291  0.93728366     0.39000
C1266       C  0.11862686  0.27128467  0.96606122     0.36000
C1267       C  0.28565623  0.23093323  0.91857305     0.36600
C1268       C  0.25973883  0.37344205  0.99725098     0.39900
N1269       N  0.19530184  0.05459276  0.93507391    -0.38200
N1270       N  0.27727772  0.14604854  0.98465240    -0.39800
N1271       N  0.02195837  0.20629151  0.95556367    -0.37500
N1272       N  0.10176167  0.30662923  0.96770576    -0.39900
N1273       N  0.16433228  0.32510746  0.04557590    -0.39700
N1274       N  0.26304296  0.40403773  0.02169101    -0.37300
N1275       N  0.16259173  0.32413554  0.88422541    -0.38400
N1276       N  0.31895564  0.21090603  0.91760650    -0.40000
C1277       C  0.03099080  0.29814537  0.74522249    -0.05000
C1278       C  0.04182774  0.25116642  0.74393587     0.09200
C1279       C  0.05665466  0.23339244  0.70197523    -0.02300
C1280       C  0.06483206  0.26272473  0.66521092    -0.00600
C1281       C  0.07109078  0.30983993  0.67334380    -0.04200
C1282       C  0.04394092  0.32678651  0.70928760     0.02800
C1283       C  0.04626663  0.22341414  0.78696485     0.09600
C1284       C  0.05670511  0.18492841  0.69381576     0.35500
C1285       C  0.02290385  0.37084076  0.70682966     0.39000
C1286       C  0.02497107  0.18122554  0.79403705    -0.04600
C1287       C  0.03799140  0.15149901  0.82957252     0.02600
C1288       C  0.07397784  0.16240961  0.85914756    -0.04200
C1289       C  0.09471215  0.20637290  0.85064077    -0.00400
C1290       C  0.07856591  0.23694736  0.81803229    -0.03000
C1291       C  0.98955842  0.16773651  0.76409869     0.36300
C1292       C  0.14070794  0.21562151  0.86188049     0.39900
C1293       C  0.01521616  0.10845997  0.83260910     0.39000
C1294       C  0.10172366  0.27964201  0.81011252     0.36000
C1295       C  0.01032051  0.31905572  0.78455458     0.36600
C1296       C  0.03899668  0.25018576  0.62604299     0.39900
N1297       N  0.99463544  0.07532112  0.83384016    -0.38200
N1298       N  0.96218273  0.15582711  0.73953593    -0.39800
N1299       N  0.17877121  0.22117388  0.86409890    -0.37500
N1300       N  0.11902155  0.31350146  0.80140695    -0.39900
N1301       N  0.05585494  0.14630168  0.68665746    -0.39700
N1302       N  0.01585102  0.23893380  0.59688819    -0.37300
N1303       N  0.00244540  0.40415951  0.70612674    -0.38400
N1304       N  0.99490327  0.33877922  0.81478563    -0.40000
C1305       C  0.38130300  0.23575159  0.71088190    -0.05000
C1306       C  0.37794819  0.22549455  0.75741125     0.09200
C1307       C  0.38100455  0.17914247  0.76875472    -0.02300
C1308       C  0.38628161  0.14646655  0.73432033    -0.00600
C1309       C  0.36817734  0.15467080  0.69177358    -0.04200
C1310       C  0.37552077  0.20071652  0.67783143     0.02800
C1311       C  0.36108711  0.26096481  0.79097655     0.09600
C1312       C  0.37591712  0.16313254  0.81431267     0.35500
C1313       C  0.38536113  0.21199460  0.63152842     0.39000
C1314       C  0.31796476  0.27797502  0.78581846    -0.04600
C1315       C  0.30015301  0.31057923  0.81618264     0.02600
C1316       C  0.32432892  0.32616013  0.85568467    -0.04200
C1317       C  0.36625592  0.30447308  0.86164990    -0.00400
C1318       C  0.38692486  0.27977799  0.82588522    -0.03000
C1319       C  0.29287773  0.26501758  0.74594967     0.36300
C1320       C  0.38152530  0.29573400  0.90683986     0.39900
C1321       C  0.25402333  0.32050695  0.80762396     0.39000
C1322       C  0.43077410  0.29462174  0.81323216     0.36000
C1323       C  0.38727182  0.28253979  0.69741410     0.36600
C1324       C  0.42958626  0.12536368  0.73226400     0.39900
N1325       N  0.21664736  0.32126280  0.79825897    -0.38200
N1326       N  0.27370396  0.25762323  0.71299162    -0.39800
N1327       N  0.39103248  0.28730149  0.94367471    -0.37500
N1328       N  0.46414332  0.31021654  0.80126890    -0.39900
N1329       N  0.37137868  0.14843647  0.85018130    -0.39700
N1330       N  0.46391152  0.10772829  0.72879770    -0.37300
N1331       N  0.39547749  0.22400702  0.59576746    -0.38400
N1332       N  0.39190098  0.31997176  0.68694471    -0.40000
C1333       C  0.21615676  0.29184699  0.59919456    -0.05000
C1334       C  0.20127983  0.24676440  0.59114689     0.09200
C1335       C  0.15464470  0.24237830  0.58092852    -0.02300
C1336       C  0.12569777  0.28029352  0.58504523    -0.00600
C1337       C  0.13809670  0.31727284  0.61178220    -0.04200
C1338       C  0.18455280  0.32743418  0.60738349     0.02800
C1339       C  0.23279896  0.20649815  0.60097505     0.09600
C1340       C  0.13318850  0.19971263  0.57153926     0.35500
C1341       C  0.19947038  0.37406972  0.60848286     0.39000
C1342       C  0.22732679  0.18391245  0.64174690    -0.04600
C1343       C  0.26373563  0.16379076  0.66365049     0.02600
C1344       C  0.30193222  0.14750293  0.63932333    -0.04200
C1345       C  0.30436507  0.16303812  0.59350057    -0.00400
C1346       C  0.27295586  0.19610374  0.57704902    -0.03000
C1347       C  0.18321854  0.17619052  0.65870988     0.36300
C1348       C  0.34081328  0.14942423  0.56409303     0.39900
C1349       C  0.26196057  0.16377131  0.71212198     0.39000
C1350       C  0.28309030  0.21944992  0.53592298     0.36000
C1351       C  0.26350259  0.30129631  0.60222896     0.36600
C1352       C  0.09040975  0.28706330  0.55270305     0.39900
N1353       N  0.26042800  0.16624711  0.75091193    -0.38200
N1354       N  0.14723232  0.16791779  0.66975757    -0.39800
N1355       N  0.37026191  0.13853137  0.54088087    -0.37500
N1356       N  0.29361628  0.23736811  0.50309057    -0.39900
N1357       N  0.11261592  0.16701319  0.56576657    -0.39700
N1358       N  0.06233947  0.29400611  0.52695429    -0.37300
N1359       N  0.21190910  0.41116870  0.60890888    -0.38400
N1360       N  0.30140068  0.30872952  0.60440086    -0.40000
C1361       C  0.16391757  0.04283586  0.79977688    -0.05000
C1362       C  0.20490659  0.06802062  0.79786478     0.09200
C1363       C  0.20534257  0.10625391  0.82663498    -0.02300
C1364       C  0.16437041  0.12633485  0.83463753    -0.00600
C1365       C  0.13085132  0.09926260  0.85418922    -0.04200
C1366       C  0.12838727  0.05592387  0.83082384     0.02800
C1367       C  0.24193541  0.06176833  0.76227384     0.09600
C1368       C  0.24393142  0.13293915  0.83735633     0.35500
C1369       C  0.08919515  0.02748830  0.83033543     0.39000
C1370       C  0.23299036  0.06201650  0.71511644    -0.04600
C1371       C  0.26845723  0.06624360  0.68315991     0.02600
C1372       C  0.31130458  0.08228174  0.69704271    -0.04200
C1373       C  0.32194090  0.06991169  0.74237659    -0.00400
C1374       C  0.28764385  0.06109279  0.77466476    -0.03000
C1375       C  0.18762786  0.06469398  0.69848798     0.36300
C1376       C  0.36628461  0.05526932  0.75478848     0.39900
C1377       C  0.25928841  0.05805430  0.63582692     0.39000
C1378       C  0.30040053  0.05245884  0.82104984     0.36000
C1379       C  0.15637534  0.00541569  0.76942146     0.36600
C1380       C  0.15057893  0.14936991  0.79380408     0.39900
N1381       N  0.25112381  0.05081272  0.59835497    -0.38200
N1382       N  0.15165018  0.06686252  0.68448756    -0.39800
N1383       N  0.40002959  0.04159251  0.76809198    -0.37500
N1384       N  0.31209360  0.04670382  0.85775962    -0.39900
N1385       N  0.27409976  0.15539246  0.84669141    -0.39700
N1386       N  0.13953678  0.16794874  0.76155536    -0.37300
N1387       N  0.05969206  0.00229517  0.82734546    -0.38400
N1388       N  0.14688216  0.97663953  0.74484002    -0.40000
C1389       C  0.01609784  0.20153209  0.22056873    -0.05000
C1390       C  0.04330229  0.21184354  0.25857103     0.09200
C1391       C  0.07242649  0.17791221  0.27312386    -0.02300
C1392       C  0.06444896  0.13422313  0.25853168    -0.00600
C1393       C  0.05613179  0.12903886  0.21231267    -0.04200
C1394       C  0.02183961  0.15895625  0.19788496     0.02800
C1395       C  0.03797462  0.25246381  0.28845904     0.09600
C1396       C  0.10846715  0.18668890  0.30373366     0.35500
C1397       C  0.99129531  0.14533740  0.16307967     0.39000
C1398       C  0.02004906  0.24783326  0.33267752    -0.04600
C1399       C  0.02453636  0.28368336  0.36414061     0.02600
C1400       C  0.05470882  0.31909754  0.35434276    -0.04200
C1401       C  0.05280998  0.33052744  0.30806706    -0.00400
C1402       C  0.05265732  0.29570252  0.27553047    -0.03000
C1403       C  0.99774797  0.20681130  0.34668472     0.36300
C1404       C  0.02593856  0.36969139  0.29657296     0.39900
C1405       C  0.99069911  0.28880495  0.39880068     0.39000
C1406       C  0.05723185  0.30749423  0.22858772     0.36000
C1407       C  0.98912974  0.23582249  0.19979325     0.36600
C1408       C  0.03158507  0.11216909  0.28704510     0.39900
N1409       N  0.96341714  0.29225258  0.42649065    -0.38200
N1410       N  0.98032168  0.17457643  0.36001247    -0.39800
N1411       N  0.00372705  0.40014832  0.28643711    -0.37500
N1412       N  0.05806134  0.31908694  0.19142226    -0.39900
N1413       N  0.13865831  0.19443780  0.32654546    -0.39700
N1414       N  0.00504284  0.09420868  0.30917682    -0.37300
N1415       N  0.96641718  0.13468982  0.13537491    -0.38400
N1416       N  0.97028753  0.26343439  0.17995533    -0.40000
C1417       C  0.23630158  0.16607554  0.45185747    -0.05000
C1418       C  0.22441512  0.20224296  0.42329582     0.09200
C1419       C  0.24772791  0.20492871  0.38233874    -0.02300
C1420       C  0.28296449  0.17433125  0.37093757    -0.00600
C1421       C  0.30041297  0.14099070  0.40199691    -0.04200
C1422       C  0.27426270  0.13726294  0.44292851     0.02800
C1423       C  0.18453643  0.23439128  0.43199932     0.09600
C1424       C  0.23263910  0.23794318  0.35005051     0.35500
C1425       C  0.28123050  0.10274441  0.47636754     0.39000
C1426       C  0.18946450  0.28032623  0.44619820    -0.04600
C1427       C  0.15228779  0.31055935  0.44538980     0.02600
C1428       C  0.11520135  0.30062791  0.41786813    -0.04200
C1429       C  0.10521566  0.25312090  0.41853303    -0.00400
C1430       C  0.14027429  0.22047208  0.42317135    -0.03000
C1431       C  0.23216085  0.29883981  0.45885766     0.36300
C1432       C  0.06370096  0.23854723  0.43902731     0.39900
C1433       C  0.15040424  0.34885348  0.47620511     0.39000
C1434       C  0.12892757  0.17278141  0.42585758     0.36000
C1435       C  0.20795025  0.15519808  0.48979311     0.36600
C1436       C  0.30252353  0.17924228  0.32655192     0.39900
N1437       N  0.14910946  0.37891910  0.50148304    -0.38200
N1438       N  0.26500566  0.31718356  0.46822381    -0.39800
N1439       N  0.03265221  0.22407166  0.45747733    -0.37500
N1440       N  0.11768615  0.13553573  0.43006347    -0.39900
N1441       N  0.21887290  0.26363176  0.32441660    -0.39700
N1442       N  0.31988202  0.18289124  0.29179055    -0.37300
N1443       N  0.28228363  0.07683711  0.50558012    -0.38400
N1444       N  0.18783926  0.14083453  0.51977354    -0.40000
C1445       C  0.25543872  0.03844622  0.32647056    -0.05000
C1446       C  0.25242674  0.05932386  0.28333293     0.09200
C1447       C  0.29074591  0.08313423  0.26940732    -0.02300
C1448       C  0.32846033  0.08779259  0.29818269    -0.00600
C1449       C  0.32467273  0.08070689  0.34617254    -0.04200
C1450       C  0.28987058  0.04985560  0.35758317     0.02800
C1451       C  0.20880581  0.05954347  0.25558483     0.09600
C1452       C  0.29250345  0.10376796  0.22531548     0.35500
C1453       C  0.28951240  0.02731441  0.40099226     0.39000
C1454       C  0.16851956  0.07262565  0.27699695    -0.04600
C1455       C  0.12776137  0.06931001  0.25404127     0.02600
C1456       C  0.12634872  0.07298633  0.20647540    -0.04200
C1457       C  0.16272478  0.04934628  0.18620540    -0.00400
C1458       C  0.20461917  0.04505802  0.20937701    -0.03000
C1459       C  0.16785563  0.08751771  0.32346038     0.36300
C1460       C  0.15352989  0.01985421  0.14821386     0.39900
C1461       C  0.09480776  0.04127264  0.27604540     0.39000
C1462       C  0.24204567  0.02645530  0.18436806     0.36000
C1463       C  0.22269112  0.00608327  0.34151779     0.36600
C1464       C  0.37042631  0.08816880  0.27406406     0.39900
N1465       N  0.06910181  0.01919503  0.29521471    -0.38200
N1466       N  0.16911544  0.09864538  0.36086858    -0.39800
N1467       N  0.14574444  0.99509116  0.11885027    -0.37500
N1468       N  0.27104759  0.01270064  0.16210398    -0.39900
N1469       N  0.29551347  0.12062077  0.19035674    -0.39700
N1470       N  0.40147333  0.08656982  0.25052686    -0.37300
N1471       N  0.28796612  0.00645799  0.43394941    -0.38400
N1472       N  0.19937168  0.98065364  0.35929247    -0.40000
C1473       C  0.41439111  0.25676055  0.23659566    -0.05000
C1474       C  0.41189810  0.26666273  0.28401587     0.09200
C1475       C  0.40594869  0.31438268  0.29392484    -0.02300
C1476       C  0.38469610  0.34332432  0.26131112    -0.00600
C1477       C  0.38155557  0.32833427  0.21612726    -0.04200
C1478       C  0.41198954  0.29247675  0.20537416     0.02800
C1479       C  0.40833318  0.22804934  0.32001147     0.09600
C1480       C  0.42431271  0.33492748  0.33408917     0.35500
C1481       C  0.42761020  0.28558038  0.15927759     0.39000
C1482       C  0.42826161  0.18400651  0.31326245    -0.04600
C1483       C  0.41501740  0.14573828  0.33948215     0.02600
C1484       C  0.38072849  0.15001701  0.37204278    -0.04200
C1485       C  0.37837366  0.19429268  0.39031285    -0.00400
C1486       C  0.38532682  0.23267829  0.36261046    -0.03000
C1487       C  0.46310130  0.17626464  0.28041803     0.36300
C1488       C  0.37591634  0.20017159  0.43856323     0.39900
C1489       C  0.44054766  0.10414404  0.33595770     0.39000
C1490       C  0.36572236  0.27443029  0.37931262     0.36000
C1491       C  0.40463560  0.21238005  0.21790537     0.36600
C1492       C  0.37064411  0.38875213  0.27296452     0.39900
N1493       N  0.46088371  0.07099606  0.33164784    -0.38200
N1494       N  0.48895851  0.16613270  0.25314585    -0.39800
N1495       N  0.37763480  0.20668713  0.47697409    -0.37500
N1496       N  0.34865142  0.30649207  0.39426595    -0.39900
N1497       N  0.43869940  0.35258332  0.36581004    -0.39700
N1498       N  0.36020143  0.42533795  0.28271339    -0.37300
N1499       N  0.43988357  0.28030885  0.12247848    -0.38400
N1500       N  0.39609440  0.17772030  0.20164108    -0.40000
C1501       C  0.13854126  0.39077411  0.28011613    -0.05000
C1502       C  0.18033519  0.36757843  0.27720582     0.09200
C1503       C  0.20075224  0.35959015  0.31941597    -0.02300
C1504       C  0.17525524  0.36104086  0.36052072    -0.00600
C1505       C  0.12807672  0.36718135  0.35912788    -0.04200
C1506       C  0.11685397  0.39631492  0.32318759     0.02800
C1507       C  0.20852299  0.36156961  0.23319354     0.09600
C1508       C  0.24897336  0.36237629  0.32182570     0.35500
C1509       C  0.08624003  0.43315761  0.33215975     0.39000
C1510       C  0.23328988  0.39826760  0.21852316    -0.04600
C1511       C  0.27601842  0.39213359  0.20068919     0.02600
C1512       C  0.29208976  0.34818238  0.19055055    -0.04200
C1513       C  0.25879363  0.30778699  0.18336980    -0.00400
C1514       C  0.21720276  0.31819037  0.21260409    -0.03000
C1515       C  0.21434062  0.44274684  0.22306480     0.36300
C1516       C  0.29777510  0.23124993  0.14739776     0.39900
C1517       C  0.30337706  0.43188555  0.19314137     0.39000
C1518       C  0.18257298  0.28705163  0.22781921     0.36000
C1519       C  0.11779730  0.40885449  0.24016558     0.36600
C1520       C  0.19809580  0.38303562  0.39757351     0.39900
N1521       N  0.32452704  0.46401760  0.18667515    -0.38200
N1522       N  0.19684974  0.47745988  0.22572622    -0.39800
N1523       N  0.31862381  0.20130675  0.13286416    -0.37500
N1524       N  0.15463714  0.26399534  0.24206788    -0.39900
N1525       N  0.28695718  0.36796283  0.32568063    -0.39700
N1526       N  0.21779656  0.40231757  0.42515613    -0.37300
N1527       N  0.06116097  0.46190481  0.34062368    -0.38400
N1528       N  0.10069321  0.42322902  0.20835809    -0.40000
C1529       C  0.25526803  0.23375708  0.21097245    -0.05000
C1530       C  0.22294389  0.24036739  0.16003610     0.09200
C1531       C  0.24319055  0.27329803  0.11376102    -0.02300
C1532       C  0.29700498  0.30081391  0.11483314    -0.00600
C1533       C  0.33187408  0.29686881  0.16601902    -0.04200
C1534       C  0.30967189  0.26145775  0.21653703     0.02800
C1535       C  0.18641643  0.20674320  0.15118804     0.09600
C1536       C  0.23359002  0.24908250  0.07378858     0.35500
C1537       C  0.31467082  0.27370515  0.26273024     0.39000
C1538       C  0.14173333  0.22148744  0.14966943    -0.04600
C1539       C  0.10688597  0.18903014  0.14903173     0.02600
C1540       C  0.11822781  0.14226782  0.15274576    -0.04200
C1541       C  0.15865968  0.13164761  0.13093198    -0.00400
C1542       C  0.19473849  0.16190416  0.13512165    -0.03000
C1543       C  0.13300250  0.26880712  0.14023615     0.36300
C1544       C  0.15763517  0.10106591  0.09248739     0.39900
C1545       C  0.06763783  0.20131408  0.12353191     0.39000
C1546       C  0.23653568  0.14831609  0.11446339     0.36000
C1547       C  0.23819614  0.20182493  0.24318590     0.36600
C1548       C  0.31950963  0.30765795  0.07230040     0.39900
N1549       N  0.03764353  0.21230185  0.10161240    -0.38200
N1550       N  0.12788454  0.30674467  0.13207067    -0.39800
N1551       N  0.15701294  0.07814358  0.06063271    -0.37500
N1552       N  0.26756100  0.13450461  0.09523662    -0.39900
N1553       N  0.22767483  0.22207725  0.04641316    -0.39700
N1554       N  0.33849112  0.31192141  0.03843042    -0.37300
N1555       N  0.31353124  0.28245510  0.30065583    -0.38400
N1556       N  0.22195042  0.17530453  0.26672614    -0.40000
loop_ 
_geom_bond_atom_site_label_1 
_geom_bond_atom_site_label_2 
_geom_bond_distance 
_geom_bond_site_symmetry_2 
_ccdc_geom_bond_type 
C1           C29   1.599       .  S
C1         C1477   1.592       .  S
C1         C1512   1.601       .  S
C1         C1533   1.431       .  S
C2           C78   1.602       .  S
C2         C1421   1.642       .  S
C2         C1449   1.621       .  S
C2         C1484   1.606       .  S
C3          C139   1.547       .  S
C3         C1393   1.594       .  S
C3         C1456   1.632       .  S
C3         C1540   1.583       .  S
C4          C176   1.573       .  S
C4         C1400   1.610       .  S
C4         C1428   1.623       .  S
C4         C1505   1.635       .  S
C5           C66   1.573       .  S
C5         C1309   1.610       .  S
C5         C1344   1.616       .  S
C5         C1372   1.622       .  S
C6          C162   1.603       .  S
C6         C1260   1.598       .  S
C6         C1288   1.616       .  S
C6         C1365   1.617       .  S
C7          C177   1.535       .  S
C7         C1225   1.602       .  S
C7         C1281   1.600       .  S
C7         C1337   1.609       .  S
C8           C17   1.623       .  S
C8         C1232   1.599       .  S
C8         C1253   1.613       .  S
C8         C1316   1.618       .  S
N9           N10   1.345       .  A
N9           N15   1.325       .  A
N9          Mn38   2.353       .  S
N10          C17   1.380       .  A
N11          N13   1.323       .  A
N11          N12   1.330       .  A
N11         Mn27   2.282   1_556  S
N12          C18   1.364       .  A
N13          N14   1.332       .  A
N13         Mn38   2.265       .  S
N14          C18   1.361       .  A
N15          N16   1.329       .  A
N15         Mn27   2.259   1_556  S
N16          C17   1.352       .  A
C18         C107   1.577       .  S
N19          N25   1.311       .  A
N19          N20   1.326       .  A
N19         Mn49   2.243       .  S
N20          C28   1.357       .  A
N21          N22   1.344       .  A
N21          N23   1.321       .  A
N21         Mn27   2.337       .  S
N22          C29   1.378       .  A
N23          N24   1.326       .  A
N23         Mn49   2.240       .  S
N24          C29   1.358       .  A
N25          N26   1.323       .  A
N25         Mn27   2.231       .  S
N26          C28   1.355       .  A
Mn27        Cl51   2.587       .  S
C28          C54   1.579       .  S
N30          N31   1.340       .  A
N30          N36   1.324       .  A
N30         Mn38   2.364       .  S
N31          C39   1.380       .  A
N32          N34   1.325       .  A
N32          N33   1.332       .  A
N32         Mn50   2.268   1_556  S
N33          C40   1.362       .  A
N34          N35   1.330       .  A
N34         Mn38   2.288       .  S
N35          C40   1.366       .  A
N36          N37   1.338       .  A
N36         Mn50   2.257   1_556  S
N37          C39   1.360       .  A
Mn38        Cl51   2.617   1_556  S
C39         C115   1.603       .  S
C40         C103   1.568       .  S
N41          N42   1.326       .  A
N41          N47   1.316       .  A
N41         Mn49   2.221       .  S
N42          C52   1.356       .  A
N43          N44   1.323       .  A
N43          N45   1.320       .  A
N43         Mn50   2.229       .  S
N44          C53   1.352       .  A
N45          N46   1.336       .  A
N45         Mn49   2.292       .  S
N46          C53   1.370       .  A
N47          N48   1.328       .  A
N47         Mn50   2.265       .  S
N48          C52   1.365       .  A
Mn49        Cl51   2.597       .  S
Mn50        Cl51   2.602       .  S
C52         C166   1.555       .  S
C53         C113   1.572       .  S
C54        C1141   1.631       .  S
C54        C1176   1.595       .  S
C54        C1197   1.628       .  S
C55         C127   1.573       .  S
C55        C1092   1.587       .  S
C55        C1120   1.628       .  S
C55        C1204   1.611       .  S
C56         C188   1.543       .  S
C56        C1057   1.587       .  S
C56        C1085   1.601       .  S
C56        C1169   1.594       .  S
C57          C77   1.575       .  S
C57        C1064   1.624       .  S
C57        C1113   1.605       .  S
C57        C1148   1.615       .  S
N58          N59   1.335       .  A
N58          N64   1.320       .  A
N58         Mn87   2.283   1_545  S
N59          C66   1.367       .  A
N60          N62   1.322       .  A
N60          N61   1.338       .  A
N60         Mn76   2.295       .  S
N61          C67   1.370       .  A
N62          N63   1.326       .  A
N62         Mn87   2.257       .  S
N63          C67   1.358       .  A
N64          N65   1.328       .  A
N64         Mn76   2.252   1_545  S
N65          C66   1.361       .  A
C67         C108   1.572       .  S
N68          N74   1.320       .  A
N68          N69   1.333       .  A
N68         Mn98   2.259       .  S
N69          C77   1.368       .  A
N70          N71   1.333       .  A
N70          N72   1.318       .  A
N70         Mn76   2.290   1_545  S
N71          C78   1.362       .  A
N72          N73   1.327       .  A
N72         Mn98   2.252   1_545  S
N73          C78   1.358       .  A
N74          N75   1.324       .  A
N74         Mn76   2.262       .  S
N75          C77   1.352       .  A
Mn76       Cl100   2.591       .  S
N79          N80   1.329       .  A
N79          N85   1.317       .  A
N79         Mn87   2.273       .  S
N80          C88   1.362       .  A
N81          N83   1.319       .  A
N81          N82   1.334       .  A
N81         Mn99   2.280   1_545  S
N82          C89   1.365       .  A
N83          N84   1.327       .  A
N83         Mn87   2.234   1_545  S
N84          C89   1.360       .  A
N85          N86   1.324       .  A
N85         Mn99   2.220       .  S
N86          C88   1.357       .  A
Mn87       Cl100   2.587       .  S
C88         C117   1.566       .  S
C89         C105   1.572       .  S
N90          N91   1.334       .  A
N90          N96   1.316       .  A
N90         Mn98   2.273   1_545  S
N91         C101   1.369       .  A
N92          N93   1.333       .  A
N92          N94   1.321       .  A
N92         Mn99   2.283       .  S
N93         C102   1.366       .  A
N94          N95   1.333       .  A
N94         Mn98   2.260       .  S
N95         C102   1.363       .  A
N96          N97   1.313       .  A
N96         Mn99   2.192   1_545  S
N97         C101   1.344       .  A
Mn98       Cl100   2.603       .  S
Mn99       Cl100   2.573       .  S
C101        C164   1.552       .  S
C102        C111   1.575       .  S
C103        C973   1.594       .  S
C103       C1001   1.614       .  S
C103       C1036   1.579       .  S
C104        C198   1.565       .  S
C104        C917   1.599       .  S
C104        C952   1.608       .  S
C104       C1029   1.598       .  S
C105        C889   1.592       .  S
C105        C924   1.610       .  S
C105        C980   1.618       .  S
C106        C163   1.551       .  S
C106        C896   1.604       .  S
C106        C945   1.575       .  S
C106       C1008   1.605       .  S
C107        C812   1.591       .  S
C107        C840   1.621       .  S
C107        C861   1.605       .  S
C108        C756   1.605       .  S
C108        C784   1.597       .  S
C108        C868   1.619       .  S
C109        C187   1.583       .  S
C109        C728   1.626       .  S
C109        C749   1.612       .  S
C109        C805   1.621       .  S
C110        C150   1.584       .  S
C110        C721   1.632       .  S
C110        C777   1.617       .  S
C110        C833   1.605       .  S
C111        C644   1.603       .  S
C111        C665   1.627       .  S
C111        C693   1.606       .  S
C112        C211   1.547       .  S
C112        C588   1.605       .  S
C112        C616   1.594       .  S
C112        C700   1.607       .  S
C113        C553   1.605       .  S
C113        C581   1.624       .  S
C113        C637   1.593       .  S
C114        C128   1.554       .  S
C114        C560   1.627       .  S
C114        C609   1.605       .  S
C114        C672   1.634       .  S
C115        C469   1.609       .  S
C115        C497   1.610       .  S
C115        C525   1.633       .  S
C116        C212   1.552       .  S
C116        C413   1.584       .  S
C116        C441   1.621       .  S
C116        C504   1.592       .  S
C117        C385   1.601       .  S
C117        C420   1.609       .  S
C117        C476   1.600       .  S
C118        C149   1.576       .  S
C118        C392   1.616       .  S
C118        C448   1.608       .  S
C118        C532   1.619       .  S
N119        N120   1.333       .  A
N119        N125   1.319       .  A
N119       Mn148   2.234   1_455  S
N120        C127   1.365       .  A
N121        N123   1.315       .  A
N121        N122   1.321       .  A
N121       Mn137   2.215       .  S
N122        C128   1.355       .  A
N123        N124   1.327       .  A
N123       Mn148   2.250       .  S
N124        C128   1.357       .  A
N125        N126   1.323       .  A
N125       Mn137   2.278   1_455  S
N126        C127   1.355       .  A
N129        N135   1.318       .  A
N129        N130   1.326       .  A
N129       Mn159   2.250       .  S
N130        C138   1.358       .  A
N131        N132   1.325       .  A
N131        N133   1.321       .  A
N131       Mn137   2.201   1_445  S
N132        C139   1.350       .  A
N133        N134   1.330       .  A
N133       Mn159   2.295   1_455  S
N134        C139   1.370       .  A
N135        N136   1.336       .  A
N135       Mn137   2.279   1_545  S
N136        C138   1.368       .  A
Mn137      Cl161   2.573       .  S
C138        C165   1.572       .  S
N140        N141   1.336       .  A
N140        N146   1.317       .  A
N140       Mn148   2.275   1_556  S
N141        C149   1.366       .  A
N142        N144   1.320       .  A
N142        N143   1.336       .  A
N142       Mn160   2.298   1_455  S
N143        C150   1.370       .  A
N144        N145   1.331       .  A
N144       Mn148   2.257   1_456  S
N145        C150   1.362       .  A
N146        N147   1.321       .  A
N146       Mn160   2.245       .  S
N147        C149   1.353       .  A
Mn148      Cl161   2.603       .  S
N151        N152   1.332       .  A
N151        N157   1.322       .  A
N151       Mn159   2.271   1_456  S
N152        C162   1.367       .  A
N153        N154   1.325       .  A
N153        N155   1.318       .  A
N153       Mn160   2.242   1_545  S
N154        C163   1.359       .  A
N155        N156   1.329       .  A
N155       Mn159   2.244   1_556  S
N156        C163   1.362       .  A
N157        N158   1.331       .  A
N157       Mn160   2.281   1_445  S
N158        C162   1.360       .  A
Mn159      Cl161   2.581   1_545  S
Mn160      Cl161   2.573   1_556  S
C164        C308   1.585       .  S
C164        C329   1.617       .  S
C164        C364   1.622       .  S
C165        C252   1.608       .  S
C165        C273   1.635       .  S
C165        C357   1.606       .  S
C166        C217   1.603       .  S
C166        C245   1.610       .  S
C166        C301   1.621       .  S
C167        C199   1.563       .  S
C167        C224   1.607       .  S
C167        C280   1.595       .  S
C167        C336   1.591       .  S
N168        N169   1.324       .  A
N168        N174   1.322       .  A
N168       Mn197   2.279   1_455  S
N169        C176   1.357       .  A
N170        N172   1.320       .  A
N170        N171   1.324       .  A
N170       Mn186   2.210       .  S
N171        C177   1.353       .  A
N172        N173   1.323       .  A
N172       Mn197   2.238   1_455  S
N173        C177   1.360       .  A
N174        N175   1.336       .  A
N174       Mn186   2.263       .  S
N175        C176   1.363       .  A
N178        N184   1.315       .  A
N178        N179   1.323       .  A
N178       Mn208   2.235   1_455  S
N179        C187   1.356       .  A
N180        N181   1.319       .  A
N180        N182   1.317       .  A
N180       Mn186   2.203       .  S
N181        C188   1.345       .  A
N182        N183   1.327       .  A
N182       Mn208   2.250   1_455  S
N183        C188   1.364       .  A
N184        N185   1.329       .  A
N184       Mn186   2.265       .  S
N185        C187   1.359       .  A
Mn186      Cl210   2.591   1_455  S
N189        N190   1.328       .  A
N189        N195   1.318       .  A
N189       Mn197   2.277       .  S
N190        C198   1.368       .  A
N191        N193   1.319       .  A
N191        N192   1.327       .  A
N191       Mn209   2.237       .  S
N192        C199   1.359       .  A
N193        N194   1.332       .  A
N193       Mn197   2.276       .  S
N194        C199   1.366       .  A
N195        N196   1.330       .  A
N195       Mn209   2.235       .  S
N196        C198   1.358       .  A
Mn197      Cl210   2.567       .  S
N200        N201   1.326       .  A
N200        N206   1.316       .  A
N200       Mn208   2.254       .  S
N201        C211   1.362       .  A
N202        N203   1.327       .  A
N202        N204   1.320       .  A
N202       Mn209   2.268       .  S
N203        C212   1.365       .  A
N204        N205   1.328       .  A
N204       Mn208   2.228       .  S
N205        C212   1.357       .  A
N206        N207   1.325       .  A
N206       Mn209   2.214       .  S
N207        C211   1.356       .  A
Mn208      Cl210   2.577       .  S
Mn209      Cl210   2.578       .  S
C213        C214   1.431       .  A
C213        C218   1.422       .  A
C213        C231   1.449       .  S
C214        C215   1.432       .  A
C214        C219   1.543       .  S
C215        C216   1.414       .  A
C215        C220   1.454       .  S
C216        C217   1.415       .  A
C216        C232   1.446       .  S
C217        C218   1.423       .  A
C218        C221   1.451       .  S
C219        C222   1.422       .  A
C219        C226   1.414       .  A
C220        N237   1.158       .  T
C221        N239   1.157       .  T
C222        C223   1.430       .  A
C222        C227   1.440       .  S
C223        C224   1.429       .  A
C223        C229   1.445       .  S
C224        C225   1.421       .  A
C225        C226   1.410       .  A
C225        C228   1.441       .  S
C226        C230   1.441       .  S
C227        N234   1.154       .  T
C228        N235   1.158       .  T
C229        N233   1.157       .  T
C230        N236   1.155       .  T
C231        N240   1.158       .  T
C232        N238   1.158       .  T
C241        C242   1.399       .  A
C241        C246   1.411       .  A
C241        C259   1.441       .  S
C242        C243   1.409       .  A
C242        C247   1.534       .  S
C243        C244   1.420       .  A
C243        C248   1.412       .  S
C244        C245   1.423       .  A
C244        C260   1.436       .  S
C245        C246   1.426       .  A
C246        C249   1.424       .  S
C247        C250   1.420       .  A
C247        C254   1.423       .  A
C248        N265   1.145       .  T
C249        N267   1.152       .  T
C250        C251   1.424       .  A
C250        C255   1.450       .  S
C251        C252   1.428       .  A
C251        C257   1.444       .  S
C252        C253   1.401       .  A
C253        C254   1.418       .  A
C253        C256   1.430       .  S
C254        C258   1.444       .  S
C255        N262   1.157       .  T
C256        N263   1.154       .  T
C257        N261   1.157       .  T
C258        N264   1.157       .  T
C259        N268   1.157       .  T
C260        N266   1.155       .  T
C269        C270   1.422       .  A
C269        C274   1.432       .  A
C269        C287   1.445       .  S
C270        C271   1.411       .  A
C270        C275   1.536       .  S
C271        C272   1.429       .  A
C271        C276   1.448       .  S
C272        C273   1.432       .  A
C272        C288   1.442       .  S
C273        C274   1.429       .  A
C274        C277   1.449       .  S
C275        C278   1.411       .  A
C275        C282   1.392       .  A
C276        N293   1.157       .  T
C277        N295   1.157       .  T
C278        C279   1.437       .  A
C278        C283   1.429       .  S
C279        C280   1.435       .  A
C279        C285   1.446       .  S
C280        C281   1.432       .  A
C281        C282   1.392       .  A
C281        C284   1.443       .  S
C282        C286   1.432       .  S
C283        N290   1.151       .  T
C284        N291   1.155       .  T
C285        N289   1.158       .  T
C286        N292   1.154       .  T
C287        N296   1.156       .  T
C288        N294   1.158       .  T
C297        C298   1.423       .  A
C297        C302   1.425       .  A
C297        C315   1.446       .  S
C298        C299   1.424       .  A
C298        C303   1.535       .  S
C299        C300   1.420       .  A
C299        C304   1.443       .  S
C300        C301   1.410       .  A
C300        C316   1.441       .  S
C301        C302   1.425       .  A
C302        C305   1.448       .  S
C303        C306   1.410       .  A
C303        C310   1.426       .  A
C304        N321   1.158       .  T
C305        N323   1.157       .  T
C306        C307   1.392       .  A
C306        C311   1.430       .  S
C307        C308   1.419       .  A
C307        C313   1.450       .  S
C308        C309   1.425       .  A
C309        C310   1.433       .  A
C309        C312   1.449       .  S
C310        C314   1.438       .  S
C311        N318   1.155       .  T
C312        N319   1.158       .  T
C313        N317   1.152       .  T
C314        N320   1.155       .  T
C315        N324   1.156       .  T
C316        N322   1.156       .  T
C325        C326   1.447       .  A
C325        C330   1.425       .  A
C325        C343   1.441       .  S
C326        C327   1.426       .  A
C326        C331   1.553       .  S
C327        C328   1.415       .  A
C327        C332   1.445       .  S
C328        C329   1.424       .  A
C328        C344   1.447       .  S
C329        C330   1.403       .  A
C330        C333   1.448       .  S
C331        C334   1.427       .  A
C331        C338   1.441       .  A
C332        N349   1.157       .  T
C333        N351   1.157       .  T
C334        C335   1.420       .  A
C334        C339   1.441       .  S
C335        C336   1.422       .  A
C335        C341   1.448       .  S
C336        C337   1.404       .  A
C337        C338   1.422       .  A
C337        C340   1.453       .  S
C338        C342   1.441       .  S
C339        N346   1.154       .  T
C340        N347   1.158       .  T
C341        N345   1.156       .  T
C342        N348   1.157       .  T
C343        N352   1.158       .  T
C344        N350   1.157       .  T
C353        C354   1.420       .  A
C353        C358   1.439       .  A
C353        C371   1.436       .  S
C354        C355   1.394       .  A
C354        C359   1.531       .  S
C355        C356   1.390       .  A
C355        C360   1.435       .  S
C356        C357   1.421       .  A
C356        C372   1.429       .  S
C357        C358   1.436       .  A
C358        C361   1.444       .  S
C359        C362   1.412       .  A
C359        C366   1.413       .  A
C360        N377   1.153       .  T
C361        N379   1.158   1_545  T
C362        C363   1.430       .  A
C362        C367   1.454       .  S
C363        C364   1.431       .  A
C363        C369   1.441       .  S
C364        C365   1.434       .  A
C365        C366   1.423       .  A
C365        C368   1.443       .  S
C366        C370   1.450       .  S
C367        N374   1.158       .  T
C368        N375   1.155       .  T
C369        N373   1.158       .  T
C370        N376   1.157       .  T
C371        N380   1.153   1_545  T
C372        N378   1.150       .  T
C381        C382   1.427       .  A
C381        C386   1.418       .  A
C381        C399   1.445       .  S
C382        C383   1.427       .  A
C382        C387   1.552       .  S
C383        C384   1.421       .  A
C383        C388   1.446       .  S
C384        C385   1.429       .  A
C384        C400   1.450       .  S
C385        C386   1.423       .  A
C386        C389   1.443       .  S
C387        C390   1.434       .  A
C387        C394   1.429       .  A
C388        N405   1.155       .  T
C389        N407   1.158       .  T
C390        C391   1.422       .  A
C390        C395   1.446       .  S
C391        C392   1.426       .  A
C391        C397   1.451       .  S
C392        C393   1.426       .  A
C393        C394   1.420       .  A
C393        C396   1.444       .  S
C394        C398   1.454       .  S
C395        N402   1.158       .  T
C396        N403   1.158       .  T
C397        N401   1.158       .  T
C398        N404   1.158       .  T
C399        N408   1.158       .  T
C400        N406   1.158       .  T
C409        C410   1.390       .  A
C409        C414   1.389       .  A
C409        C427   1.424       .  S
C410        C411   1.413       .  A
C410        C415   1.512       .  S
C411        C412   1.421       .  A
C411        C416   1.432       .  S
C412        C413   1.429       .  A
C412        C428   1.439       .  S
C413        C414   1.419       .  A
C414        C417   1.438       .  S
C415        C418   1.414       .  A
C415        C422   1.413       .  A
C416        N433   1.155       .  T
C417        N435   1.157       .  T
C418        C419   1.411       .  A
C418        C423   1.444       .  S
C419        C420   1.408       .  A
C419        C425   1.445       .  S
C420        C421   1.430       .  A
C421        C422   1.420       .  A
C421        C424   1.449       .  S
C422        C426   1.447       .  S
C423        N430   1.157       .  T
C424        N431   1.157       .  T
C425        N429   1.158       .  T
C426        N432   1.156       .  T
C427        N436   1.151       .  T
C428        N434   1.155       .  T
C437        C438   1.421       .  A
C437        C442   1.435       .  A
C437        C455   1.447       .  S
C438        C439   1.412       .  A
C438        C443   1.533       .  S
C439        C440   1.413       .  A
C439        C444   1.443       .  S
C440        C441   1.420       .  A
C440        C456   1.441       .  S
C441        C442   1.437       .  A
C442        C445   1.449       .  S
C443        C446   1.406       .  A
C443        C450   1.419       .  A
C444        N461   1.156       .  T
C445        N463   1.157       .  T
C446        C447   1.404       .  A
C446        C451   1.441       .  S
C447        C448   1.421       .  A
C447        C453   1.432       .  S
C448        C449   1.430       .  A
C449        C450   1.435       .  A
C449        C452   1.445       .  S
C450        C454   1.436       .  S
C451        N458   1.157       .  T
C452        N459   1.158       .  T
C453        N457   1.147       .  T
C454        N460   1.153       .  T
C455        N464   1.157       .  T
C456        N462   1.157       .  T
C465        C466   1.413       .  A
C465        C470   1.427       .  A
C465        C483   1.452       .  S
C466        C467   1.416       .  A
C466        C471   1.522       .  S
C467        C468   1.414       .  A
C467        C472   1.449       .  S
C468        C469   1.431       .  A
C468        C484   1.449       .  S
C469        C470   1.432       .  A
C470        C473   1.442       .  S
C471        C474   1.417       .  A
C471        C478   1.395       .  A
C472        N489   1.158       .  T
C473        N491   1.158       .  T
C474        C475   1.429       .  A
C474        C479   1.430       .  S
C475        C476   1.436       .  A
C475        C481   1.435       .  S
C476        C477   1.423       .  A
C477        C478   1.390       .  A
C477        C480   1.430       .  S
C478        C482   1.437       .  S
C479        N486   1.151       .  T
C480        N487   1.151       .  T
C481        N485   1.155       .  T
C482        N488   1.154       .  T
C483        N492   1.157       .  T
C484        N490   1.157       .  T
C493        C494   1.441       .  A
C493        C498   1.428       .  A
C493        C511   1.441       .  S
C494        C495   1.425       .  A
C494        C499   1.571       .  S
C495        C496   1.429       .  A
C495        C500   1.443       .  S
C496        C497   1.433       .  A
C496        C512   1.448       .  S
C497        C498   1.402       .  A
C498        C501   1.446       .  S
C499        C502   1.433       .  A
C499        C506   1.461       .  A
C500        N517   1.158       .  T
C501        N519   1.157       .  T
C502        C503   1.408       .  A
C502        C507   1.449       .  S
C503        C504   1.416       .  A
C503        C509   1.449       .  S
C504        C505   1.398       .  A
C505        C506   1.430       .  A
C505        C508   1.451       .  S
C506        C510   1.450       .  S
C507        N514   1.157       .  T
C508        N515   1.158       .  T
C509        N513   1.157       .  T
C510        N516   1.159       .  T
C511        N520   1.155       .  T
C512        N518   1.156       .  T
C521        C522   1.389       .  A
C521        C526   1.397       .  A
C521        C539   1.435       .  S
C522        C523   1.425       .  A
C522        C527   1.564       .  S
C523        C524   1.456       .  A
C523        C528   1.428   1_556  S
C524        C525   1.433       .  A
C524        C540   1.442       .  S
C525        C526   1.436       .  A
C526        C529   1.431       .  S
C527        C530   1.438       .  A
C527        C534   1.427       .  A
C528        N545   1.153       .  T
C529        N547   1.151       .  T
C530        C531   1.443       .  A
C530        C535   1.440       .  S
C531        C532   1.407       .  A
C531        C537   1.447       .  S
C532        C533   1.414       .  A
C533        C534   1.421       .  A
C533        C536   1.447       .  S
C534        C538   1.435       .  S
C535        N542   1.157       .  T
C536        N543   1.157       .  T
C537        N541   1.158   1_556  T
C538        N544   1.151       .  T
C539        N548   1.156       .  T
C540        N546   1.157   1_556  T
C549        C550   1.417       .  A
C549        C554   1.425       .  A
C549        C567   1.449       .  S
C550        C551   1.412       .  A
C550        C555   1.522       .  S
C551        C552   1.407       .  A
C551        C556   1.457       .  S
C552        C553   1.424       .  A
C552        C568   1.444       .  S
C553        C554   1.429       .  A
C554        C557   1.450       .  S
C555        C558   1.403       .  A
C555        C562   1.395       .  A
C556        N573   1.157       .  T
C557        N575   1.158       .  T
C558        C559   1.432       .  A
C558        C563   1.441       .  S
C559        C560   1.444       .  A
C559        C565   1.433       .  S
C560        C561   1.432       .  A
C561        C562   1.402       .  A
C561        C564   1.421       .  S
C562        C566   1.444       .  S
C563        N570   1.154       .  T
C564        N571   1.148       .  T
C565        N569   1.155       .  T
C566        N572   1.154       .  T
C567        N576   1.158       .  T
C568        N574   1.158       .  T
C577        C578   1.414       .  A
C577        C582   1.404       .  A
C577        C595   1.434       .  S
C578        C579   1.427       .  A
C578        C583   1.545       .  S
C579        C580   1.439       .  A
C579        C584   1.427       .  S
C580        C581   1.414       .  A
C580        C596   1.435       .  S
C581        C582   1.419       .  A
C582        C585   1.452       .  S
C583        C586   1.423       .  A
C583        C590   1.431       .  A
C584        N601   1.151       .  T
C585        N603   1.158       .  T
C586        C587   1.414       .  A
C586        C591   1.446       .  S
C587        C588   1.407       .  A
C587        C593   1.444       .  S
C588        C589   1.425       .  A
C589        C590   1.429       .  A
C589        C592   1.447       .  S
C590        C594   1.450       .  S
C591        N598   1.157       .  T
C592        N599   1.157       .  T
C593        N597   1.157       .  T
C594        N600   1.157       .  T
C595        N604   1.152       .  T
C596        N602   1.155       .  T
C605        C606   1.414       .  A
C605        C610   1.422       .  A
C605        C623   1.448       .  S
C606        C607   1.416       .  A
C606        C611   1.520       .  S
C607        C608   1.418       .  A
C607        C612   1.446       .  S
C608        C609   1.413       .  A
C608        C624   1.443       .  S
C609        C610   1.429       .  A
C610        C613   1.447       .  S
C611        C614   1.404       .  A
C611        C618   1.398       .  A
C612        N629   1.157       .  T
C613        N631   1.157       .  T
C614        C615   1.424       .  A
C614        C619   1.430       .  S
C615        C616   1.438       .  A
C615        C621   1.443       .  S
C616        C617   1.422       .  A
C617        C618   1.398       .  A
C617        C620   1.441       .  S
C618        C622   1.429       .  S
C619        N626   1.149       .  T
C620        N627   1.149       .  T
C621        N625   1.158       .  T
C622        N628   1.152       .  T
C623        N632   1.157       .  T
C624        N630   1.157       .  T
C633        C634   1.433       .  A
C633        C638   1.441       .  A
C633        C651   1.440       .  S
C634        C635   1.419       .  A
C634        C639   1.550       .  S
C635        C636   1.385       .  A
C635        C640   1.421       .  S
C636        C637   1.393       .  A
C636        C652   1.444       .  S
C637        C638   1.423       .  A
C638        C641   1.449       .  S
C639        C642   1.425       .  A
C639        C646   1.430       .  A
C640        N657   1.152       .  T
C641        N659   1.158       .  T
C642        C643   1.420       .  A
C642        C647   1.450       .  S
C643        C644   1.417       .  A
C643        C649   1.446       .  S
C644        C645   1.429       .  A
C645        C646   1.437       .  A
C645        C648   1.449       .  S
C646        C650   1.447       .  S
C647        N654   1.158       .  T
C648        N655   1.158       .  T
C649        N653   1.157       .  T
C650        N656   1.157       .  T
C651        N660   1.155       .  T
C652        N658   1.157       .  T
C661        C662   1.402       .  A
C661        C666   1.444       .  A
C661        C679   1.419       .  S
C662        C663   1.362       .  A
C662        C667   1.517       .  S
C663        C664   1.377       .  A
C663        C668   1.443       .  S
C664        C665   1.439       .  A
C664        C680   1.417       .  S
C665        C666   1.446       .  A
C666        C669   1.441       .  S
C667        C670   1.410       .  A
C667        C674   1.419       .  A
C668        N685   1.158       .  T
C669        N687   1.157       .  T
C670        C671   1.422       .  A
C670        C675   1.448       .  S
C671        C672   1.434       .  A
C671        C677   1.444       .  S
C672        C673   1.431       .  A
C673        C674   1.425       .  A
C673        C676   1.448       .  S
C674        C678   1.450       .  S
C675        N682   1.157       .  T
C676        N683   1.157       .  T
C677        N681   1.158       .  T
C678        N684   1.157       .  T
C679        N688   1.148       .  T
C680        N686   1.148       .  T
C689        C690   1.451       .  A
C689        C694   1.464       .  A
C689        C707   1.435       .  S
C690        C691   1.394       .  A
C690        C695   1.532       .  S
C691        C692   1.398       .  A
C691        C696   1.449       .  S
C692        C693   1.402       .  A
C692        C708   1.438       .  S
C693        C694   1.459       .  A
C694        C697   1.445       .  S
C695        C698   1.423       .  A
C695        C702   1.424       .  A
C696        N713   1.158       .  T
C697        N715   1.158       .  T
C698        C699   1.424       .  A
C698        C703   1.447       .  S
C699        C700   1.418       .  A
C699        C705   1.443       .  S
C700        C701   1.426       .  A
C701        C702   1.424       .  A
C701        C704   1.451       .  S
C702        C706   1.446       .  S
C703        N710   1.158       .  T
C704        N711   1.157       .  T
C705        N709   1.158       .  T
C706        N712   1.156       .  T
C707        N716   1.156       .  T
C708        N714   1.153       .  T
C717        C718   1.438       .  A
C717        C722   1.463       .  A
C717        C735   1.432   1_455  S
C718        C719   1.389       .  A
C718        C723   1.536       .  S
C719        C720   1.397       .  A
C719        C724   1.437       .  S
C720        C721   1.410       .  A
C720        C736   1.439       .  S
C721        C722   1.455       .  A
C722        C725   1.442   1_455  S
C723        C726   1.426       .  A
C723        C730   1.423       .  A
C724        N741   1.156       .  T
C725        N743   1.157       .  T
C726        C727   1.421       .  A
C726        C731   1.445       .  S
C727        C728   1.416       .  A
C727        C733   1.448       .  S
C728        C729   1.426       .  A
C729        C730   1.431       .  A
C729        C732   1.445       .  S
C730        C734   1.446       .  S
C731        N738   1.158       .  T
C732        N739   1.156       .  T
C733        N737   1.158   1_455  T
C734        N740   1.157       .  T
C735        N744   1.152       .  T
C736        N742   1.151       .  T
C745        C746   1.412       .  A
C745        C750   1.416       .  A
C745        C763   1.446       .  S
C746        C747   1.413       .  A
C746        C751   1.528       .  S
C747        C748   1.430       .  A
C747        C752   1.447       .  S
C748        C749   1.430       .  A
C748        C764   1.440       .  S
C749        C750   1.423       .  A
C750        C753   1.443       .  S
C751        C754   1.392       .  A
C751        C758   1.417       .  A
C752        N769   1.157       .  T
C753        N771   1.158       .  T
C754        C755   1.404       .  A
C754        C759   1.449       .  S
C755        C756   1.434       .  A
C755        C761   1.428       .  S
C756        C757   1.424       .  A
C757        C758   1.434       .  A
C757        C760   1.447       .  S
C758        C762   1.429       .  S
C759        N766   1.156       .  T
C760        N767   1.158       .  T
C761        N765   1.148       .  T
C762        N768   1.151       .  T
C763        N772   1.155       .  T
C764        N770   1.156       .  T
C773        C774   1.398       .  A
C773        C778   1.379       .  A
C773        C791   1.432       .  S
C774        C775   1.430       .  A
C774        C779   1.538       .  S
C775        C776   1.448       .  A
C775        C780   1.436       .  S
C776        C777   1.443       .  A
C776        C792   1.447       .  S
C777        C778   1.425       .  A
C778        C781   1.443       .  S
C779        C782   1.424       .  A
C779        C786   1.428       .  A
C780        N797   1.154       .  T
C781        N799   1.155       .  T
C782        C783   1.422       .  A
C782        C787   1.448       .  S
C783        C784   1.422       .  A
C783        C789   1.442       .  S
C784        C785   1.398       .  A
C785        C786   1.421       .  A
C785        C788   1.434       .  S
C786        C790   1.442       .  S
C787        N794   1.157       .  T
C788        N795   1.155       .  T
C789        N793   1.154       .  T
C790        N796   1.157       .  T
C791        N800   1.151       .  T
C792        N798   1.158       .  T
C801        C802   1.393       .  A
C801        C806   1.400       .  A
C801        C819   1.433       .  S
C802        C803   1.416       .  A
C802        C807   1.524       .  S
C803        C804   1.431       .  A
C803        C808   1.444       .  S
C804        C805   1.450       .  A
C804        C820   1.441       .  S
C805        C806   1.435       .  A
C806        C809   1.441       .  S
C807        C810   1.432       .  A
C807        C814   1.413       .  A
C808        N825   1.155       .  T
C809        N827   1.154       .  T
C810        C811   1.420       .  A
C810        C815   1.439       .  S
C811        C812   1.396       .  A
C811        C817   1.445       .  S
C812        C813   1.427       .  A
C813        C814   1.412       .  A
C813        C816   1.445       .  S
C814        C818   1.449       .  S
C815        N822   1.157       .  T
C816        N823   1.157       .  T
C817        N821   1.157       .  T
C818        N824   1.157       .  T
C819        N828   1.153       .  T
C820        N826   1.158       .  T
C829        C830   1.426       .  A
C829        C834   1.428       .  A
C829        C847   1.446       .  S
C830        C831   1.431       .  A
C830        C835   1.572       .  S
C831        C832   1.426       .  A
C831        C836   1.443   1_556  S
C832        C833   1.418       .  A
C832        C848   1.446       .  S
C833        C834   1.435       .  A
C834        C837   1.448       .  S
C835        C838   1.439       .  A
C835        C842   1.430       .  A
C836        N853   1.157       .  T
C837        N855   1.157       .  T
C838        C839   1.431       .  A
C838        C843   1.441   1_556  S
C839        C840   1.420       .  A
C839        C845   1.455       .  S
C840        C841   1.428       .  A
C841        C842   1.431       .  A
C841        C844   1.443       .  S
C842        C846   1.450       .  S
C843        N850   1.156       .  T
C844        N851   1.158       .  T
C845        N849   1.158       .  T
C846        N852   1.158       .  T
C847        N856   1.158       .  T
C848        N854   1.157       .  T
C857        C858   1.418       .  A
C857        C862   1.432       .  A
C857        C875   1.439       .  S
C858        C859   1.396       .  A
C858        C863   1.533       .  S
C859        C860   1.397       .  A
C859        C864   1.433       .  S
C860        C861   1.433       .  A
C860        C876   1.441       .  S
C861        C862   1.433       .  A
C862        C865   1.436       .  S
C863        C866   1.421       .  A
C863        C870   1.424       .  A
C864        N881   1.155       .  T
C865        N883   1.155       .  T
C866        C867   1.420       .  A
C866        C871   1.447       .  S
C867        C868   1.426       .  A
C867        C873   1.448       .  S
C868        C869   1.421       .  A
C869        C870   1.425       .  A
C869        C872   1.444       .  S
C870        C874   1.451       .  S
C871        N878   1.157       .  T
C872        N879   1.158       .  T
C873        N877   1.157       .  T
C874        N880   1.157       .  T
C875        N884   1.154       .  T
C876        N882   1.154       .  T
C885        C886   1.397       .  A
C885        C890   1.398       .  A
C885        C903   1.434       .  S
C886        C887   1.433       .  A
C886        C891   1.535       .  S
C887        C888   1.428       .  A
C887        C892   1.433       .  S
C888        C889   1.421       .  A
C888        C904   1.444       .  S
C889        C890   1.430       .  A
C890        C893   1.443       .  S
C891        C894   1.438       .  A
C891        C898   1.418       .  A
C892        N909   1.156   1_545  T
C893        N911   1.156       .  T
C894        C895   1.422       .  A
C894        C899   1.438       .  S
C895        C896   1.388       .  A
C895        C901   1.442       .  S
C896        C897   1.430       .  A
C897        C898   1.419       .  A
C897        C900   1.448       .  S
C898        C902   1.445       .  S
C899        N906   1.157       .  T
C900        N907   1.156       .  T
C901        N905   1.158   1_545  T
C902        N908   1.156       .  T
C903        N912   1.156       .  T
C904        N910   1.156   1_545  T
C913        C914   1.455       .  A
C913        C918   1.422       .  A
C913        C931   1.436       .  S
C914        C915   1.425       .  A
C914        C919   1.554       .  S
C915        C916   1.420       .  A
C915        C920   1.447       .  S
C916        C917   1.430       .  A
C916        C932   1.450       .  S
C917        C918   1.384       .  A
C918        C921   1.450       .  S
C919        C922   1.417       .  A
C919        C926   1.446       .  A
C920        N937   1.156       .  T
C921        N939   1.157       .  T
C922        C923   1.414       .  A
C922        C927   1.442       .  S
C923        C924   1.427       .  A
C923        C929   1.444       .  S
C924        C925   1.404       .  A
C925        C926   1.430       .  A
C925        C928   1.450       .  S
C926        C930   1.441       .  S
C927        N934   1.155       .  T
C928        N935   1.158       .  T
C929        N933   1.157       .  T
C930        N936   1.157       .  T
C931        N940   1.157       .  T
C932        N938   1.157       .  T
C941        C942   1.406       .  A
C941        C946   1.390       .  A
C941        C959   1.442       .  S
C942        C943   1.424       .  A
C942        C947   1.516       .  S
C943        C944   1.423       .  A
C943        C948   1.436       .  S
C944        C945   1.420       .  A
C944        C960   1.446       .  S
C945        C946   1.424       .  A
C946        C949   1.445       .  S
C947        C950   1.413       .  A
C947        C954   1.415       .  A
C948        N965   1.153       .  T
C949        N967   1.150       .  T
C950        C951   1.418       .  A
C950        C955   1.449       .  S
C951        C952   1.430       .  A
C951        C957   1.448       .  S
C952        C953   1.423       .  A
C953        C954   1.422       .  A
C953        C956   1.441       .  S
C954        C958   1.448       .  S
C955        N962   1.157       .  T
C956        N963   1.158       .  T
C957        N961   1.157       .  T
C958        N964   1.157       .  T
C959        N968   1.156       .  T
C960        N966   1.157       .  T
C969        C970   1.409       .  A
C969        C974   1.439       .  A
C969        C987   1.437       .  S
C970        C971   1.379       .  A
C970        C975   1.510       .  S
C971        C972   1.373       .  A
C971        C976   1.412       .  S
C972        C973   1.429       .  A
C972        C988   1.428       .  S
C973        C974   1.439       .  A
C974        C977   1.440       .  S
C975        C978   1.410       .  A
C975        C982   1.400       .  A
C976        N993   1.147       .  T
C977        N995   1.156       .  T
C978        C979   1.425       .  A
C978        C983   1.450       .  S
C979        C980   1.429       .  A
C979        C985   1.440       .  S
C980        C981   1.447       .  A
C981        C982   1.424       .  A
C981        C984   1.450       .  S
C982        C986   1.448       .  S
C983        N990   1.157       .  T
C984        N991   1.157       .  T
C985        N989   1.158       .  T
C986        N992   1.157       .  T
C987        N996   1.154       .  T
C988        N994   1.155       .  T
C997        C998   1.420       .  A
C997       C1002   1.404       .  A
C997       C1015   1.448       .  S
C998        C999   1.431       .  A
C998       C1003   1.546       .  S
C999       C1000   1.437       .  A
C999       C1004   1.445       .  S
C1000      C1001   1.436       .  A
C1000      C1016   1.444       .  S
C1001      C1002   1.417       .  A
C1002      C1005   1.447       .  S
C1003      C1006   1.427       .  A
C1003      C1010   1.429       .  A
C1004      N1021   1.156   1_556  T
C1005      N1023   1.159       .  T
C1006      C1007   1.418       .  A
C1006      C1011   1.453       .  S
C1007      C1008   1.434       .  A
C1007      C1013   1.453       .  S
C1008      C1009   1.414       .  A
C1009      C1010   1.418       .  A
C1009      C1012   1.442       .  S
C1010      C1014   1.445       .  S
C1011      N1018   1.158       .  T
C1012      N1019   1.157       .  T
C1013      N1017   1.158       .  T
C1014      N1020   1.158       .  T
C1015      N1024   1.158       .  T
C1016      N1022   1.158       .  T
C1025      C1026   1.389       .  A
C1025      C1030   1.401       .  A
C1025      C1043   1.448       .  S
C1026      C1027   1.400       .  A
C1026      C1031   1.509       .  S
C1027      C1028   1.415       .  A
C1027      C1032   1.411       .  S
C1028      C1029   1.418       .  A
C1028      C1044   1.435       .  S
C1029      C1030   1.444       .  A
C1030      C1033   1.431       .  S
C1031      C1034   1.414       .  A
C1031      C1038   1.419       .  A
C1032      N1049   1.147       .  T
C1033      N1051   1.149       .  T
C1034      C1035   1.406       .  A
C1034      C1039   1.448       .  S
C1035      C1036   1.398       .  A
C1035      C1041   1.447       .  S
C1036      C1037   1.413       .  A
C1037      C1038   1.423       .  A
C1037      C1040   1.447       .  S
C1038      C1042   1.449       .  S
C1039      N1046   1.158       .  T
C1040      N1047   1.157       .  T
C1041      N1045   1.158       .  T
C1042      N1048   1.157       .  T
C1043      N1052   1.156       .  T
C1044      N1050   1.154       .  T
C1053      C1054   1.426       .  A
C1053      C1058   1.415       .  A
C1053      C1071   1.451       .  S
C1054      C1055   1.427       .  A
C1054      C1059   1.531       .  S
C1055      C1056   1.414       .  A
C1055      C1060   1.445       .  S
C1056      C1057   1.398       .  A
C1056      C1072   1.439       .  S
C1057      C1058   1.423       .  A
C1058      C1061   1.447       .  S
C1059      C1062   1.416       .  A
C1059      C1066   1.421       .  A
C1060      N1077   1.157       .  T
C1061      N1079   1.157       .  T
C1062      C1063   1.401       .  A
C1062      C1067   1.447       .  S
C1063      C1064   1.421       .  A
C1063      C1069   1.448       .  S
C1064      C1065   1.441       .  A
C1065      C1066   1.435       .  A
C1065      C1068   1.442       .  S
C1066      C1070   1.445       .  S
C1067      N1074   1.157       .  T
C1068      N1075   1.157       .  T
C1069      N1073   1.158       .  T
C1070      N1076   1.155       .  T
C1071      N1080   1.158       .  T
C1072      N1078   1.156       .  T
C1081      C1082   1.425       .  A
C1081      C1086   1.414       .  A
C1081      C1099   1.449       .  S
C1082      C1083   1.419       .  A
C1082      C1087   1.520       .  S
C1083      C1084   1.421       .  A
C1083      C1088   1.448       .  S
C1084      C1085   1.426       .  A
C1084      C1100   1.445       .  S
C1085      C1086   1.407       .  A
C1086      C1089   1.445       .  S
C1087      C1090   1.406       .  A
C1087      C1094   1.433       .  A
C1088      N1105   1.157       .  T
C1089      N1107   1.158   1_455  T
C1090      C1091   1.381       .  A
C1090      C1095   1.431       .  S
C1091      C1092   1.402       .  A
C1091      C1097   1.448       .  S
C1092      C1093   1.425       .  A
C1093      C1094   1.439       .  A
C1093      C1096   1.447       .  S
C1094      C1098   1.437   1_455  S
C1095      N1102   1.155       .  T
C1096      N1103   1.157   1_455  T
C1097      N1101   1.158       .  T
C1098      N1104   1.154       .  T
C1099      N1108   1.157       .  T
C1100      N1106   1.155       .  T
C1109      C1110   1.410       .  A
C1109      C1114   1.412       .  A
C1109      C1127   1.442       .  S
C1110      C1111   1.425       .  A
C1110      C1115   1.532       .  S
C1111      C1112   1.427       .  A
C1111      C1116   1.438       .  S
C1112      C1113   1.409       .  A
C1112      C1128   1.447       .  S
C1113      C1114   1.425       .  A
C1114      C1117   1.447       .  S
C1115      C1118   1.418       .  A
C1115      C1122   1.403       .  A
C1116      N1133   1.154       .  T
C1117      N1135   1.158       .  T
C1118      C1119   1.433       .  A
C1118      C1123   1.445       .  S
C1119      C1120   1.436       .  A
C1119      C1125   1.443       .  S
C1120      C1121   1.423       .  A
C1121      C1122   1.411       .  A
C1121      C1124   1.444       .  S
C1122      C1126   1.434       .  S
C1123      N1130   1.157       .  T
C1124      N1131   1.157       .  T
C1125      N1129   1.157       .  T
C1126      N1132   1.151       .  T
C1127      N1136   1.154       .  T
C1128      N1134   1.158       .  T
C1137      C1138   1.400       .  A
C1137      C1142   1.412       .  A
C1137      C1155   1.452       .  S
C1138      C1139   1.405       .  A
C1138      C1143   1.527       .  S
C1139      C1140   1.430       .  A
C1139      C1144   1.431       .  S
C1140      C1141   1.440       .  A
C1140      C1156   1.441       .  S
C1141      C1142   1.446       .  A
C1142      C1145   1.436       .  S
C1143      C1146   1.419       .  A
C1143      C1150   1.409       .  A
C1144      N1161   1.150       .  T
C1145      N1163   1.150       .  T
C1146      C1147   1.430       .  A
C1146      C1151   1.444       .  S
C1147      C1148   1.422       .  A
C1147      C1153   1.449       .  S
C1148      C1149   1.428       .  A
C1149      C1150   1.418       .  A
C1149      C1152   1.443       .  S
C1150      C1154   1.451       .  S
C1151      N1158   1.157       .  T
C1152      N1159   1.158       .  T
C1153      N1157   1.157       .  T
C1154      N1160   1.157       .  T
C1155      N1164   1.156       .  T
C1156      N1162   1.159       .  T
C1165      C1166   1.391       .  A
C1165      C1170   1.384       .  A
C1165      C1183   1.433       .  S
C1166      C1167   1.411       .  A
C1166      C1171   1.503       .  S
C1167      C1168   1.426       .  A
C1167      C1172   1.450       .  S
C1168      C1169   1.443       .  A
C1168      C1184   1.439       .  S
C1169      C1170   1.428       .  A
C1170      C1173   1.450       .  S
C1171      C1174   1.409       .  A
C1171      C1178   1.410       .  A
C1172      N1189   1.157       .  T
C1173      N1191   1.156       .  T
C1174      C1175   1.410       .  A
C1174      C1179   1.450       .  S
C1175      C1176   1.427       .  A
C1175      C1181   1.447       .  S
C1176      C1177   1.421       .  A
C1177      C1178   1.420       .  A
C1177      C1180   1.443       .  S
C1178      C1182   1.452       .  S
C1179      N1186   1.157       .  T
C1180      N1187   1.158       .  T
C1181      N1185   1.157       .  T
C1182      N1188   1.158       .  T
C1183      N1192   1.153       .  T
C1184      N1190   1.157       .  T
C1193      C1194   1.434       .  A
C1193      C1198   1.423       .  A
C1193      C1211   1.444       .  S
C1194      C1195   1.428       .  A
C1194      C1199   1.559       .  S
C1195      C1196   1.432       .  A
C1195      C1200   1.443       .  S
C1196      C1197   1.427       .  A
C1196      C1212   1.448       .  S
C1197      C1198   1.418       .  A
C1198      C1201   1.447       .  S
C1199      C1202   1.421       .  A
C1199      C1206   1.435       .  A
C1200      N1217   1.157       .  T
C1201      N1219   1.157       .  T
C1202      C1203   1.423       .  A
C1202      C1207   1.442       .  S
C1203      C1204   1.422       .  A
C1203      C1209   1.446       .  S
C1204      C1205   1.415       .  A
C1205      C1206   1.432       .  A
C1205      C1208   1.453       .  S
C1206      C1210   1.439       .  S
C1207      N1214   1.154       .  T
C1208      N1215   1.158       .  T
C1209      N1213   1.158       .  T
C1210      N1216   1.156       .  T
C1211      N1220   1.157       .  T
C1212      N1218   1.157       .  T
C1221      C1222   1.400       .  A
C1221      C1226   1.403       .  A
C1221      C1239   1.441       .  S
C1222      C1223   1.424       .  A
C1222      C1227   1.542       .  S
C1223      C1224   1.438       .  A
C1223      C1228   1.441       .  S
C1224      C1225   1.442       .  A
C1224      C1240   1.446       .  S
C1225      C1226   1.420       .  A
C1226      C1229   1.441       .  S
C1227      C1230   1.428       .  A
C1227      C1234   1.420       .  A
C1228      N1245   1.155       .  T
C1229      N1247   1.154       .  T
C1230      C1231   1.428       .  A
C1230      C1235   1.444       .  S
C1231      C1232   1.424       .  A
C1231      C1237   1.450       .  S
C1232      C1233   1.428       .  A
C1233      C1234   1.425       .  A
C1233      C1236   1.446       .  S
C1234      C1238   1.452       .  S
C1235      N1242   1.157       .  T
C1236      N1243   1.157       .  T
C1237      N1241   1.158       .  T
C1238      N1244   1.158       .  T
C1239      N1248   1.157       .  T
C1240      N1246   1.158       .  T
C1249      C1250   1.401       .  A
C1249      C1254   1.389       .  A
C1249      C1267   1.441       .  S
C1250      C1251   1.459       .  A
C1250      C1255   1.546       .  S
C1251      C1252   1.463       .  A
C1251      C1256   1.444   1_556  S
C1252      C1253   1.461       .  A
C1252      C1268   1.445       .  S
C1253      C1254   1.406       .  A
C1254      C1257   1.458       .  S
C1255      C1258   1.432       .  A
C1255      C1262   1.425       .  A
C1256      N1273   1.156       .  T
C1257      N1275   1.155       .  T
C1258      C1259   1.424       .  A
C1258      C1263   1.448       .  S
C1259      C1260   1.414       .  A
C1259      C1265   1.448       .  S
C1260      C1261   1.434       .  A
C1261      C1262   1.426       .  A
C1261      C1264   1.452       .  S
C1262      C1266   1.447       .  S
C1263      N1270   1.157       .  T
C1264      N1271   1.157       .  T
C1265      N1269   1.157       .  T
C1266      N1272   1.158       .  T
C1267      N1276   1.157       .  T
C1268      N1274   1.158   1_556  T
C1277      C1278   1.423       .  A
C1277      C1282   1.416       .  A
C1277      C1295   1.449       .  S
C1278      C1279   1.414       .  A
C1278      C1283   1.525       .  S
C1279      C1280   1.415       .  A
C1279      C1284   1.449       .  S
C1280      C1281   1.422       .  A
C1280      C1296   1.445       .  S
C1281      C1282   1.422       .  A
C1282      C1285   1.445       .  S
C1283      C1286   1.416       .  A
C1283      C1290   1.396       .  A
C1284      N1301   1.158       .  T
C1285      N1303   1.157       .  T
C1286      C1287   1.429       .  A
C1286      C1291   1.441   1_455  S
C1287      C1288   1.428       .  A
C1287      C1293   1.445       .  S
C1288      C1289   1.461       .  A
C1289      C1290   1.412       .  A
C1289      C1292   1.444       .  S
C1290      C1294   1.458       .  S
C1291      N1298   1.153       .  T
C1292      N1299   1.153       .  T
C1293      N1297   1.157   1_455  T
C1294      N1300   1.156       .  T
C1295      N1304   1.158   1_455  T
C1296      N1302   1.158       .  T
C1305      C1306   1.416       .  A
C1305      C1310   1.431       .  A
C1305      C1323   1.450       .  S
C1306      C1307   1.413       .  A
C1306      C1311   1.522       .  S
C1307      C1308   1.407       .  A
C1307      C1312   1.440       .  S
C1308      C1309   1.397       .  A
C1308      C1324   1.437       .  S
C1309      C1310   1.439       .  A
C1310      C1313   1.442       .  S
C1311      C1314   1.393       .  A
C1311      C1318   1.407       .  A
C1312      N1329   1.157       .  T
C1313      N1331   1.158       .  T
C1314      C1315   1.414       .  A
C1314      C1319   1.453       .  S
C1315      C1316   1.452       .  A
C1315      C1321   1.434       .  S
C1316      C1317   1.419       .  A
C1317      C1318   1.420       .  A
C1317      C1320   1.442       .  S
C1318      C1322   1.432       .  S
C1319      N1326   1.155       .  T
C1320      N1327   1.158       .  T
C1321      N1325   1.154       .  T
C1322      N1328   1.155       .  T
C1323      N1332   1.157       .  T
C1324      N1330   1.154       .  T
C1333      C1334   1.423       .  A
C1333      C1338   1.430       .  A
C1333      C1351   1.447       .  S
C1334      C1335   1.435       .  A
C1334      C1339   1.545       .  S
C1335      C1336   1.417       .  A
C1335      C1340   1.441       .  S
C1336      C1337   1.396       .  A
C1336      C1352   1.444       .  S
C1337      C1338   1.428       .  A
C1338      C1341   1.448       .  S
C1339      C1342   1.392       .  A
C1339      C1346   1.423       .  A
C1340      N1357   1.158       .  T
C1341      N1359   1.157       .  T
C1342      C1343   1.404       .  A
C1342      C1347   1.428       .  S
C1343      C1344   1.428       .  A
C1343      C1349   1.436       .  S
C1344      C1345   1.437       .  A
C1345      C1346   1.442       .  A
C1345      C1348   1.446       .  S
C1346      C1350   1.434       .  S
C1347      N1354   1.150       .  T
C1348      N1355   1.158       .  T
C1349      N1353   1.151       .  T
C1350      N1356   1.152       .  T
C1351      N1360   1.157       .  T
C1352      N1358   1.157       .  T
C1361      C1362   1.436       .  A
C1361      C1366   1.451       .  A
C1361      C1379   1.439       .  S
C1362      C1363   1.410       .  A
C1362      C1367   1.534       .  S
C1363      C1364   1.378       .  A
C1363      C1368   1.435       .  S
C1364      C1365   1.407       .  A
C1364      C1380   1.453       .  S
C1365      C1366   1.452       .  A
C1366      C1369   1.443       .  S
C1367      C1370   1.424       .  A
C1367      C1374   1.418       .  A
C1368      N1385   1.155       .  T
C1369      N1387   1.159       .  T
C1370      C1371   1.423       .  A
C1370      C1375   1.449       .  S
C1371      C1372   1.429       .  A
C1371      C1377   1.449       .  S
C1372      C1373   1.431       .  A
C1373      C1374   1.423       .  A
C1373      C1376   1.445       .  S
C1374      C1378   1.452       .  S
C1375      N1382   1.158       .  T
C1376      N1383   1.159       .  T
C1377      N1381   1.157       .  T
C1378      N1384   1.158       .  T
C1379      N1388   1.152   1_545  T
C1380      N1386   1.154       .  T
C1389      C1390   1.425       .  A
C1389      C1394   1.430       .  A
C1389      C1407   1.436   1_455  S
C1390      C1391   1.397       .  A
C1390      C1395   1.493       .  S
C1391      C1392   1.379       .  A
C1391      C1396   1.436       .  S
C1392      C1393   1.400       .  A
C1392      C1408   1.450       .  S
C1393      C1394   1.421       .  A
C1394      C1397   1.438   1_455  S
C1395      C1398   1.419       .  A
C1395      C1402   1.405       .  A
C1396      N1413   1.154       .  T
C1397      N1415   1.154       .  T
C1398      C1399   1.413       .  A
C1398      C1403   1.445   1_455  S
C1399      C1400   1.412       .  A
C1399      C1405   1.444   1_455  S
C1400      C1401   1.415       .  A
C1401      C1402   1.404       .  A
C1401      C1404   1.449       .  S
C1402      C1406   1.441       .  S
C1403      N1410   1.156       .  T
C1404      N1411   1.158       .  T
C1405      N1409   1.157       .  T
C1406      N1412   1.155       .  T
C1407      N1416   1.155       .  T
C1408      N1414   1.158       .  T
C1417      C1418   1.412       .  A
C1417      C1422   1.439       .  A
C1417      C1435   1.441       .  S
C1418      C1419   1.398       .  A
C1418      C1423   1.542       .  S
C1419      C1420   1.424       .  A
C1419      C1424   1.443       .  S
C1420      C1421   1.449       .  A
C1420      C1436   1.444       .  S
C1421      C1422   1.443       .  A
C1422      C1425   1.441       .  S
C1423      C1426   1.425       .  A
C1423      C1430   1.413       .  A
C1424      N1441   1.153       .  T
C1425      N1443   1.158       .  T
C1426      C1427   1.424       .  A
C1426      C1431   1.441       .  S
C1427      C1428   1.411       .  A
C1427      C1433   1.449       .  S
C1428      C1429   1.434       .  A
C1429      C1430   1.430       .  A
C1429      C1432   1.446       .  S
C1430      C1434   1.451       .  S
C1431      N1438   1.157       .  T
C1432      N1439   1.158       .  T
C1433      N1437   1.158       .  T
C1434      N1440   1.157       .  T
C1435      N1444   1.153       .  T
C1436      N1442   1.156       .  T
C1445      C1446   1.425       .  A
C1445      C1450   1.426       .  A
C1445      C1463   1.440       .  S
C1446      C1447   1.407       .  A
C1446      C1451   1.547       .  S
C1447      C1448   1.425       .  A
C1447      C1452   1.445       .  S
C1448      C1449   1.442       .  A
C1448      C1464   1.440       .  S
C1449      C1450   1.425       .  A
C1450      C1453   1.451       .  S
C1451      C1454   1.410       .  A
C1451      C1458   1.438       .  A
C1452      N1469   1.154       .  T
C1453      N1471   1.158       .  T
C1454      C1455   1.403       .  A
C1454      C1459   1.442       .  S
C1455      C1456   1.415       .  A
C1455      C1461   1.443       .  S
C1456      C1457   1.419       .  A
C1457      C1458   1.438       .  A
C1457      C1460   1.446       .  S
C1458      C1462   1.444       .  S
C1459      N1466   1.155       .  T
C1460      N1467   1.158   1_545  T
C1461      N1465   1.157       .  T
C1462      N1468   1.157       .  T
C1463      N1472   1.153   1_545  T
C1464      N1470   1.158       .  T
C1473      C1474   1.434       .  A
C1473      C1478   1.408       .  A
C1473      C1491   1.449       .  S
C1474      C1475   1.447       .  A
C1474      C1479   1.568       .  S
C1475      C1476   1.443       .  A
C1475      C1480   1.444       .  S
C1476      C1477   1.411       .  A
C1476      C1492   1.443       .  S
C1477      C1478   1.427       .  A
C1478      C1481   1.453       .  S
C1479      C1482   1.440       .  A
C1479      C1486   1.439       .  A
C1480      N1497   1.157       .  T
C1481      N1499   1.157       .  T
C1482      C1483   1.429       .  A
C1482      C1487   1.438       .  S
C1483      C1484   1.408       .  A
C1483      C1489   1.447       .  S
C1484      C1485   1.412       .  A
C1485      C1486   1.417       .  A
C1485      C1488   1.440       .  S
C1486      C1490   1.446       .  S
C1487      N1494   1.152       .  T
C1488      N1495   1.154       .  T
C1489      N1493   1.156       .  T
C1490      N1496   1.158       .  T
C1491      N1500   1.157       .  T
C1492      N1498   1.157       .  T
C1501      C1502   1.426       .  A
C1501      C1506   1.436       .  A
C1501      C1519   1.444       .  S
C1502      C1503   1.416       .  A
C1502      C1507   1.557       .  S
C1503      C1504   1.433       .  A
C1503      C1508   1.447       .  S
C1504      C1505   1.423       .  A
C1504      C1520   1.448       .  S
C1505      C1506   1.414       .  A
C1506      C1509   1.442       .  S
C1507      C1510   1.384       .  A
C1507      C1514   1.437       .  A
C1508      N1525   1.155       .  T
C1509      N1527   1.156       .  T
C1510      C1511   1.391       .  A
C1510      C1515   1.433       .  S
C1511      C1512   1.412       .  A
C1511      C1517   1.449       .  S
C1512      C1513   1.569       .  A
C1513      C1514   1.540       .  A
C1513      C1516   2.745       .  S
C1514      C1518   1.457       .  S
C1515      N1522   1.151       .  T
C1516      N1523   1.159       .  T
C1517      N1521   1.157       .  T
C1518      N1524   1.158       .  T
C1519      N1528   1.157       .  T
C1520      N1526   1.158       .  T
C1529      C1530   1.809       .  A
C1529      C1534   1.831       .  A
C1529      C1547   1.437       .  S
C1530      C1531   1.788       .  A
C1530      C1535   1.501       .  S
C1531      C1532   1.805       .  A
C1531      C1536   1.411       .  S
C1532      C1533   1.850       .  A
C1532      C1548   1.440       .  S
C1533      C1534   1.944       .  A
C1534      C1537   1.422       .  S
C1535      C1538   1.406       .  A
C1535      C1542   1.424       .  A
C1536      N1553   1.148       .  T
C1537      N1555   1.151       .  T
C1538      C1539   1.417       .  A
C1538      C1543   1.449       .  S
C1539      C1540   1.425       .  A
C1539      C1545   1.447       .  S
C1540      C1541   1.401       .  A
C1541      C1542   1.408       .  A
C1541      C1544   1.449       .  S
C1542      C1546   1.443       .  S
C1543      N1550   1.156       .  T
C1544      N1551   1.158       .  T
C1545      N1549   1.158       .  T
C1546      N1552   1.158       .  T
C1547      N1556   1.157       .  T
C1548      N1554   1.157       .  T
