geometry optimzed in LAMMPS
_audit_creation_date              2020-11-30 
_audit_creation_method            'lammps2cif' 
_symmetry_space_group_name_H-M    'P1' 
_symmetry_Int_Tables_number       1 
_symmetry_cell_setting            triclinic 
loop_ 
_symmetry_equiv_pos_as_xyz 
  x,y,z 
_cell_length_a                    44.18113694 
_cell_length_b                    42.8960880445628 
_cell_length_c                    34.14963800916125 
_cell_angle_alpha                 89.41373459205775 
_cell_angle_beta                  89.83860853208444 
_cell_angle_gamma                 118.88988691655982 
loop_ 
_atom_site_label 
_atom_site_type_symbol 
_atom_site_fract_x 
_atom_site_fract_y 
_atom_site_fract_z 
_atom_site_charge 
O1          O  0.16919746  0.29341379  0.19419439    -0.84600
O2          O  0.23205289  0.35175185  0.20917642    -0.81700
C3          C  0.23393112  0.37942407  0.19286516     0.98800
O4          O  0.21638248  0.39312854  0.20540813    -0.81700
O5          O  0.15890474  0.39349796  0.23090168    -0.84300
C6          C  0.13665401  0.37458195  0.20588128     1.03400
O7          O  0.12348425  0.34101000  0.20657872    -0.77100
O8          O  0.11833294  0.27407146  0.22100652    -0.77300
C9          C  0.13737789  0.27173129  0.19479720     1.03300
O10         O  0.16092491  0.27135743  0.27682847    -0.84600
O11         O  0.22166442  0.33105383  0.29156047    -0.81700
C12         C  0.24007512  0.36305338  0.30083790     0.98900
O13         O  0.23614763  0.38741662  0.28440234    -0.81700
O14         O  0.17479958  0.38244260  0.31004664    -0.84300
C15         C  0.14306162  0.37249461  0.31345312     1.03300
O16         O  0.12192585  0.35103212  0.28912105    -0.77100
O17         O  0.12705764  0.29045111  0.30233683    -0.77300
C18         C  0.13987812  0.26982000  0.30338367     1.03300
Cr19       Cr  0.19426113  0.31388327  0.24344013     1.93700
Cr20       Cr  0.19484578  0.38527767  0.25741373     1.93200
Cr21       Cr  0.12623683  0.31584314  0.25438760     1.39100
O22         O  0.17205914  0.33840439  0.25174160    -1.22400
C23         C  0.03805291  0.01958524  0.02695108    -0.01800
C24         C  0.47704575  0.46192588  0.47720631    -0.01800
C25         C  0.04176467  0.01961970  0.48107361    -0.01800
C26         C  0.01704552  0.47768432  0.48145653    -0.01800
C27         C  0.01499435  0.47696141  0.02728867    -0.01800
C28         C  0.47512774  0.45919483  0.02368035    -0.01800
C29         C  0.45731834  0.48321574  0.02411029    -0.01800
C30         C  0.02358214  0.04341694  0.47908711    -0.01800
C31         C  0.48116538  0.02599861  0.47995950    -0.01800
C32         C  0.45917274  0.48560939  0.47754627    -0.01800
C33         C  0.48106245  0.02485372  0.02556277    -0.01800
C34         C  0.01998598  0.04275953  0.02478550    -0.01800
O35         O  0.26453674  0.16293653  0.26646714    -0.84600
O36         O  0.32565296  0.21690394  0.29228690    -0.81700
C37         C  0.35687037  0.23343468  0.30204626     0.98800
O38         O  0.37927055  0.22776809  0.28492695    -0.81700
O39         O  0.36639186  0.15970464  0.30669468    -0.84300
C40         C  0.35182878  0.12614723  0.30817242     1.03400
O41         O  0.32860014  0.10775969  0.28395785    -0.77100
O42         O  0.27422791  0.12200630  0.29351191    -0.77300
C43         C  0.25677298  0.13810380  0.29138221     1.03300
O44         O  0.29297169  0.17623731  0.18826443    -0.84600
O45         O  0.35181629  0.23441853  0.21302109    -0.81700
C46         C  0.37571574  0.23231158  0.19472742     0.98900
O47         O  0.38443243  0.20952024  0.20455011    -0.81700
O48         O  0.37637843  0.14519360  0.22737516    -0.84300
C49         C  0.35631632  0.12261639  0.20297849     1.03300
O50         O  0.32476785  0.11430590  0.20161175    -0.77100
O51         O  0.26580800  0.12121162  0.21005583    -0.77300
C52         C  0.26928152  0.14465079  0.18488177     1.03300
Cr53       Cr  0.31026219  0.19545379  0.24061690     1.93700
Cr54       Cr  0.37308061  0.18436617  0.25544251     1.93200
Cr55       Cr  0.30043518  0.11997357  0.24740087     1.39100
O56         O  0.32804793  0.16663742  0.24790459    -1.22400
C57         C  0.41675294  0.09526397  0.15083417     0.19400
C58         C  0.44638891  0.11396445  0.12738158    -0.18700
C59         C  0.45974607  0.09564123  0.10609432    -0.10900
C60         C  0.44425702  0.05837162  0.10900254     0.21700
C61         C  0.41543654  0.03976815  0.13363692    -0.20300
C62         C  0.40140748  0.05799177  0.15396329    -0.11100
C63         C  0.45779235  0.03837308  0.08670865    -0.15300
C64         C  0.46638736  0.04522092  0.04858978    -0.29100
C65         C  0.40337078  0.11524508  0.17349212    -0.03400
C66         C  0.36937082  0.10402157  0.17763783    -0.39900
H67         H  0.45892208  0.14273947  0.12517333     0.12800
H68         H  0.48249725  0.11062437  0.08790772     0.12500
H69         H  0.40344141  0.01106555  0.13657791     0.11900
H70         H  0.37905220  0.04307357  0.17272037     0.12100
H71         H  0.45878617  0.01630152  0.10130737     0.14900
H72         H  0.46703785  0.06877239  0.03598393     0.13700
H73         H  0.42206800  0.14029330  0.18627875     0.11300
H74         H  0.35069762  0.08032995  0.16257603     0.13300
C75         C  0.40974363  0.10410259  0.37298823     0.19400
C76         C  0.42726462  0.11573819  0.40847933    -0.18700
C77         C  0.44423019  0.09853411  0.42508226    -0.10900
C78         C  0.44461499  0.06980321  0.40595170     0.21700
C79         C  0.42769333  0.05863860  0.37002731    -0.20300
C80         C  0.41008545  0.07534873  0.35384895    -0.11100
C81         C  0.46322003  0.05175853  0.42253039    -0.15300
C82         C  0.46413054  0.04657328  0.46130915    -0.29100
C83         C  0.39365217  0.12396558  0.35467950    -0.03400
C84         C  0.36386454  0.10730698  0.33495551    -0.39900
H85         H  0.42783341  0.13820722  0.42333389     0.12800
H86         H  0.45779395  0.10833186  0.45238083     0.12500
H87         H  0.42794095  0.03681122  0.35459940     0.11900
H88         H  0.39762472  0.06646836  0.32581003     0.12100
H89         H  0.47453401  0.04065937  0.40247170     0.14900
H90         H  0.44828856  0.05376728  0.47903474     0.13700
H91         H  0.40738487  0.15284991  0.35609061     0.11300
H92         H  0.34986889  0.07837652  0.33474885     0.13300
C93         C  0.43886854  0.35966918  0.05786752     0.19400
C94         C  0.45463351  0.34097154  0.07383444    -0.18700
C95         C  0.43714708  0.31400384  0.10187355    -0.10900
C96         C  0.40298164  0.30444126  0.11331520     0.21700
C97         C  0.38626842  0.32095171  0.09433385    -0.20300
C98         C  0.40384406  0.34796530  0.06663012    -0.11100
C99         C  0.38439141  0.27903157  0.14605479    -0.15300
C100        C  0.39456355  0.25688887  0.16202579    -0.29100
C101        C  0.45992393  0.39354574  0.03580926    -0.03400
C102        C  0.45452487  0.42152911  0.04182383    -0.39900
H103        H  0.48110460  0.34850854  0.06630104     0.12800
H104        H  0.45120168  0.30209073  0.11546403     0.12500
H105        H  0.35980155  0.31368843  0.10180523     0.11900
H106        H  0.39040672  0.36065913  0.05313906     0.12100
H107        H  0.36106724  0.27839927  0.15737546     0.14900
H108        H  0.41665558  0.25548154  0.15024570     0.13700
H109        H  0.48077509  0.39617857  0.01679628     0.11300
H110        H  0.43562581  0.41720314  0.06406733     0.13300
C111        C  0.18357095  0.08906136  0.36665449     0.19400
C112        C  0.18163282  0.08225831  0.40707716    -0.18700
C113        C  0.14985658  0.06792981  0.42693520    -0.10900
C114        C  0.11920747  0.05916889  0.40634209     0.21700
C115        C  0.12130497  0.06556903  0.36577123    -0.20300
C116        C  0.15307141  0.08046076  0.34615250    -0.11100
C117        C  0.08471577  0.04460277  0.42564898    -0.15300
C118        C  0.07792336  0.03389946  0.46330248    -0.29100
C119        C  0.21726442  0.10356783  0.34588262    -0.03400
C120        C  0.22543602  0.12660086  0.31562870    -0.39900
H121        H  0.20484110  0.08857939  0.42339480     0.12800
H122        H  0.14977674  0.06424150  0.45827673     0.12500
H123        H  0.09822196  0.05900614  0.34909287     0.11900
H124        H  0.15362238  0.08454108  0.31474351     0.12100
H125        H  0.06343444  0.04223821  0.40780754     0.14900
H126        H  0.09726622  0.03139510  0.48019280     0.13700
H127        H  0.23565535  0.09525297  0.35574236     0.11300
H128        H  0.20808684  0.13685556  0.30765583     0.13300
C129        C  0.42636020  0.36954863  0.42347302     0.19400
C130        C  0.39469750  0.33807636  0.42746006    -0.18700
C131        C  0.38567086  0.30996693  0.40149739    -0.10900
C132        C  0.40818872  0.31273295  0.37071240     0.21700
C133        C  0.44024038  0.34376135  0.36737654    -0.20300
C134        C  0.44926937  0.37183697  0.39331704    -0.11100
C135        C  0.39925858  0.28388946  0.34173968    -0.15300
C136        C  0.36643295  0.26031651  0.33296812    -0.29100
C137        C  0.43545136  0.39822035  0.45275955    -0.03400
C138        C  0.46183340  0.43143886  0.44763224    -0.39900
H139        H  0.37689956  0.33513415  0.45091807     0.12800
H140        H  0.36127608  0.28598289  0.40612509     0.12500
H141        H  0.45832547  0.34641349  0.34439503     0.11900
H142        H  0.47450827  0.39487142  0.38976653     0.12100
H143        H  0.42018856  0.28349803  0.32534680     0.14900
H144        H  0.34526648  0.26190371  0.34723892     0.13700
H145        H  0.41945193  0.39149086  0.47876751     0.11300
H146        H  0.47359407  0.43907143  0.41882678     0.13300
C147        C  0.13007981  0.07481199  0.07285829     0.19400
C148        C  0.15379238  0.11094140  0.07774954    -0.18700
C149        C  0.18193406  0.12121846  0.10288798    -0.10900
C150        C  0.18703979  0.09530772  0.12306168     0.21700
C151        C  0.16365010  0.05923545  0.11739562    -0.20300
C152        C  0.13567767  0.04905124  0.09239612    -0.11100
C153        C  0.21499766  0.10443270  0.15196729    -0.15300
C154        C  0.24410734  0.13597688  0.15300807    -0.29100
C155        C  0.10007161  0.06432459  0.04674122    -0.03400
C156        C  0.07023708  0.03401471  0.05273089    -0.39900
H157        H  0.15005316  0.13123307  0.06281224     0.12800
H158        H  0.19891058  0.14933486  0.10716065     0.12500
H159        H  0.16700554  0.03875800  0.13245141     0.11900
H160        H  0.11859901  0.02094953  0.08831435     0.12100
H161        H  0.21124764  0.08407026  0.17359434     0.14900
H162        H  0.24903381  0.15652081  0.13125380     0.13700
H163        H  0.10276518  0.08175798  0.02240123     0.11300
H164        H  0.06734651  0.01973141  0.08007711     0.13300
C165        C  0.08905114  0.39643589  0.12542256     0.19400
C166        C  0.05397121  0.38493895  0.11907059    -0.18700
C167        C  0.04388264  0.40438530  0.09443976    -0.10900
C168        C  0.06879935  0.43564362  0.07528616     0.21700
C169        C  0.10389264  0.44613553  0.08024743    -0.20300
C170        C  0.11399526  0.42694240  0.10533040    -0.11100
C171        C  0.05885706  0.45709594  0.04920329    -0.15300
C172        C  0.02826647  0.45651166  0.05297794    -0.29100
C173        C  0.09902118  0.37632430  0.15324455    -0.03400
C174        C  0.12648599  0.39305505  0.17655917    -0.39900
H175        H  0.03432348  0.36121889  0.13376974     0.12800
H176        H  0.01655564  0.39455023  0.09024096     0.12500
H177        H  0.12356587  0.46947138  0.06503719     0.11900
H178        H  0.14130218  0.43581142  0.10870880     0.12100
H179        H  0.07723605  0.47417331  0.02703406     0.14900
H180        H  0.01280242  0.44334021  0.07873051     0.13700
H181        H  0.08222195  0.34778687  0.15659394     0.11300
H182        H  0.14165166  0.42191762  0.17526402     0.13300
C183        C  0.30644386  0.40903072  0.11390150     0.19400
C184        C  0.32517688  0.39367464  0.09749578    -0.18700
C185        C  0.35277566  0.41318300  0.07186070    -0.10900
C186        C  0.36257815  0.44874994  0.06195253     0.21700
C187        C  0.34287975  0.46372982  0.07641045    -0.20300
C188        C  0.31525391  0.44425695  0.10247250    -0.11100
C189        C  0.39454300  0.47032049  0.03835226    -0.15300
C190        C  0.42272044  0.46714134  0.04624657    -0.29100
C191        C  0.27991730  0.38815651  0.14466165    -0.03400
C192        C  0.25750954  0.39780036  0.15943630    -0.39900
H193        H  0.31901711  0.36668638  0.10531876     0.12800
H194        H  0.36705605  0.40068408  0.06032197     0.12500
H195        H  0.34991859  0.49104654  0.06909814     0.11900
H196        H  0.30203737  0.45761579  0.11448149     0.12100
H197        H  0.39468933  0.48759524  0.01484310     0.14900
H198        H  0.42242313  0.45584191  0.07482265     0.13700
H199        H  0.27950251  0.36430959  0.15643394     0.11300
H200        H  0.25657697  0.42082007  0.14752727     0.13300
C201        C  0.05651020  0.43719229  0.40843297     0.19400
C202        C  0.08300050  0.45335145  0.38037548    -0.18700
C203        C  0.09738599  0.43408059  0.36305004    -0.10900
C204        C  0.08479348  0.39794150  0.37264622     0.21700
C205        C  0.05768841  0.38147352  0.39998923    -0.20300
C206        C  0.04404894  0.40108933  0.41832369    -0.11100
C207        C  0.09750326  0.37658947  0.35133956    -0.15300
C208        C  0.13121338  0.38920554  0.34294365    -0.29100
C209        C  0.04155083  0.45830145  0.42575715    -0.03400
C210        C  0.03274545  0.45582270  0.46379839    -0.39900
H211        H  0.09268831  0.48100504  0.37201499     0.12800
H212        H  0.11757453  0.44711025  0.34114709     0.12500
H213        H  0.04711356  0.35345122  0.40713614     0.11900
H214        H  0.02310044  0.38776011  0.43928577     0.12100
H215        H  0.07848970  0.35064689  0.34075928     0.14900
H216        H  0.15036539  0.41405967  0.35566362     0.13700
H217        H  0.03865635  0.47715063  0.40689335     0.11300
H218        H  0.03460478  0.43579163  0.48147000     0.13300
C219        C  0.31273703  0.41337310  0.37597748     0.19400
C220        C  0.33703065  0.44933066  0.38093732    -0.18700
C221        C  0.36363455  0.45933429  0.40803903    -0.10900
C222        C  0.36684903  0.43347091  0.43069139     0.21700
C223        C  0.34168332  0.39766104  0.42717748    -0.20300
C224        C  0.31486204  0.38761428  0.40013325    -0.11100
C225        C  0.39601859  0.44336643  0.45826929    -0.15300
C226        C  0.42674228  0.47266239  0.45229736    -0.29100
C227        C  0.28553476  0.40423318  0.34576185    -0.03400
C228        C  0.26670599  0.37142389  0.33105949    -0.39900
H229        H  0.33564056  0.46983452  0.36348164     0.12800
H230        H  0.38150354  0.48741174  0.41127019     0.12500
H231        H  0.34310389  0.37734325  0.44495517     0.11900
H232        H  0.29592685  0.35974965  0.39857657     0.12100
H233        H  0.39237090  0.42585974  0.48303167     0.14900
H234        H  0.43056170  0.48618900  0.42439912     0.13700
H235        H  0.28163376  0.42573175  0.33422610     0.11300
H236        H  0.27067940  0.34964572  0.34115256     0.13300
C237        C  0.05366693  0.11595151  0.10512925     0.19400
C238        C  0.04168089  0.11585675  0.14321313    -0.18700
C239        C  0.05395968  0.14755402  0.16405506    -0.10900
C240        C  0.07920961  0.18004832  0.14774613     0.21700
C241        C  0.09117572  0.18019640  0.10940724    -0.20300
C242        C  0.07852065  0.14847783  0.08834025    -0.11100
C243        C  0.09231492  0.21279603  0.17195875    -0.15300
C244        C  0.12322699  0.24219873  0.16636414    -0.29100
C245        C  0.04050548  0.08162710  0.08419443    -0.03400
C246        C  0.03689401  0.07898137  0.04505251    -0.39900
H247        H  0.02250236  0.09117652  0.15677256     0.12800
H248        H  0.04410212  0.14656616  0.19338125     0.12500
H249        H  0.11009447  0.20466781  0.09540688     0.11900
H250        H  0.08870935  0.14937248  0.05923445     0.12100
H251        H  0.07698396  0.21150750  0.19748902     0.14900
H252        H  0.14013863  0.24337510  0.14265239     0.13700
H253        H  0.03172532  0.05738867  0.10161346     0.11300
H254        H  0.04107736  0.10243068  0.02861344     0.13300
C255        C  0.08913918  0.13398535  0.42714237     0.19400
C256        C  0.10629481  0.17015908  0.43685389    -0.18700
C257        C  0.12042750  0.19652000  0.40739471    -0.10900
C258        C  0.11859238  0.18705806  0.36772278     0.21700
C259        C  0.10269645  0.15090928  0.35825816    -0.19900
C260        C  0.08761174  0.12468281  0.38748614    -0.11100
C261        C  0.13272532  0.21425693  0.33565874    -0.15300
C262        C  0.12907345  0.24358260  0.33604229    -0.29100
C263        C  0.07321278  0.10612487  0.45845692    -0.03400
C264        C  0.04172835  0.07760155  0.45365486    -0.39900
H265        H  0.10806740  0.17801189  0.46717955     0.12800
H266        H  0.13309105  0.22423846  0.41564660     0.12500
H267        H  0.10111980  0.14291766  0.32799248     0.11900
H268        H  0.07484961  0.09712383  0.37892340     0.12100
H269        H  0.14347794  0.20851730  0.30979037     0.14900
H270        H  0.11562146  0.24761057  0.36052550     0.13700
H271        H  0.08763250  0.10954315  0.48493068     0.11300
H272        H  0.02984334  0.07650340  0.42585573     0.13300
O273        O  0.17052277  0.29250934  0.69515001    -0.84600
O274        O  0.23355579  0.35011320  0.71111436    -0.81700
C275        C  0.23618087  0.37806353  0.69465698     0.98800
O276        O  0.21843860  0.39186464  0.70617300    -0.81700
O277        O  0.16111364  0.39342362  0.72938722    -0.84300
C278        C  0.13916337  0.37471371  0.70394693     1.03400
O279        O  0.12569622  0.34111390  0.70469577    -0.77100
O280        O  0.11920726  0.27376491  0.72044447    -0.77300
C281        C  0.13866895  0.27118033  0.69496171     1.03300
O282        O  0.16030007  0.27065573  0.77812027    -0.84600
O283        O  0.22144165  0.32939915  0.79317001    -0.81700
C284        C  0.24051839  0.36141537  0.80174690     0.98900
O285        O  0.23669136  0.38589712  0.78543284    -0.81700
O286        O  0.17519355  0.38194554  0.80940899    -0.84300
C287        C  0.14357446  0.37279271  0.81180928     1.03300
O288        O  0.12270529  0.35169680  0.78699206    -0.77100
O289        O  0.12639513  0.29055611  0.80170871    -0.77300
C290        C  0.13903259  0.26981699  0.80402555     1.03300
Cr291      Cr  0.19469907  0.31261946  0.74476587     1.93700
Cr292      Cr  0.19609764  0.38449118  0.75742065     1.93200
Cr293      Cr  0.12702799  0.31589395  0.75316988     1.39100
O294        O  0.17289630  0.33771990  0.75182152    -1.22400
C295        C  0.03954426  0.01942346  0.52660027    -0.01800
C296        C  0.47819559  0.46222495  0.97849501    -0.01800
C297        C  0.04045630  0.01972973  0.98144481    -0.01800
C298        C  0.01753062  0.47724821  0.98195301    -0.01800
C299        C  0.01447700  0.47683816  0.52683494    -0.01800
C300        C  0.47407774  0.45887281  0.52241972    -0.01800
C301        C  0.45715176  0.48367548  0.52291296    -0.01800
C302        C  0.02187060  0.04312123  0.97934283    -0.01800
C303        C  0.48210696  0.02649223  0.97997228    -0.01800
C304        C  0.45962406  0.48514799  0.97874852    -0.01800
C305        C  0.47977727  0.02461867  0.52552972    -0.01800
C306        C  0.02232707  0.04331233  0.52446077    -0.01800
O307        O  0.26403826  0.16124407  0.76854222    -0.84600
O308        O  0.32466359  0.21625177  0.79383576    -0.81700
C309        C  0.35586746  0.23311911  0.80358067     0.98800
O310        O  0.37845829  0.22761959  0.78663644    -0.81700
O311        O  0.36648528  0.15989095  0.80825678    -0.84300
C312        C  0.35255777  0.12638024  0.80955329     1.03400
O313        O  0.32958993  0.10774191  0.78518100    -0.77100
O314        O  0.27432873  0.12050941  0.79511355    -0.77300
C315        C  0.25656581  0.13628144  0.79325824     1.03300
O316        O  0.29262876  0.17494368  0.69005648    -0.84600
O317        O  0.35053188  0.23370601  0.71430224    -0.81700
C318        C  0.37459000  0.23193836  0.69593092     0.98900
O319        O  0.38397392  0.20973049  0.70610727    -0.81700
O320        O  0.37675197  0.14568077  0.72873270    -0.84300
C321        C  0.35680260  0.12327706  0.70410356     1.03300
O322        O  0.32522362  0.11466628  0.70287931    -0.77100
O323        O  0.26580940  0.11991303  0.71171802    -0.77300
C324        C  0.26961987  0.14316451  0.68617160     1.03300
Cr325      Cr  0.30945007  0.19439171  0.74232013     1.93700
Cr326      Cr  0.37291611  0.18451152  0.75703052     1.93200
Cr327      Cr  0.30079006  0.11936878  0.74892009     1.39100
O328        O  0.32782949  0.16616247  0.74965438    -1.22400
C329        C  0.41645894  0.09527857  0.65168581     0.19400
C330        C  0.44703113  0.11372075  0.62967939    -0.18700
C331        C  0.45950064  0.09505824  0.60755339    -0.10900
C332        C  0.44222897  0.05766725  0.60838914     0.21700
C333        C  0.41240009  0.03921928  0.63153238    -0.20300
C334        C  0.39926582  0.05783987  0.65260365    -0.11100
C335        C  0.45527851  0.03737829  0.58596776    -0.15300
C336        C  0.46460783  0.04471716  0.54810553    -0.29100
C337        C  0.40365938  0.11548866  0.67481416    -0.03400
C338        C  0.36980116  0.10503238  0.67831058    -0.39900
H339        H  0.46093384  0.14255863  0.62915689     0.12800
H340        H  0.48292949  0.10980536  0.59035779     0.12500
H341        H  0.39903025  0.01038636  0.63284044     0.11900
H342        H  0.37612442  0.04301288  0.67022668     0.12100
H343        H  0.45574435  0.01499360  0.60046226     0.14900
H344        H  0.46594055  0.06868920  0.53573430     0.13700
H345        H  0.42257546  0.13989646  0.68855574     0.11300
H346        H  0.35102428  0.08202789  0.66235543     0.13300
C347        C  0.41145259  0.10625839  0.87482674     0.19400
C348        C  0.42814664  0.11705267  0.91091151    -0.18700
C349        C  0.44545299  0.09997983  0.92704828    -0.10900
C350        C  0.44688841  0.07220381  0.90691402     0.21700
C351        C  0.43120825  0.06229392  0.87023303    -0.20300
C352        C  0.41343531  0.07892944  0.85443393    -0.11100
C353        C  0.46507477  0.05362465  0.92324011    -0.15300
C354        C  0.46535232  0.04749970  0.96186050    -0.29100
C355        C  0.39412571  0.12524684  0.85734521    -0.03400
C356        C  0.36523286  0.10801523  0.83613914    -0.39900
H357        H  0.42760834  0.13856213  0.92669197     0.12800
H358        H  0.45820894  0.10895425  0.95492155     0.12500
H359        H  0.43240412  0.04135301  0.85396636     0.11900
H360        H  0.40187934  0.07091250  0.82583803     0.12100
H361        H  0.47644501  0.04268894  0.90303474     0.14900
H362        H  0.44899423  0.05397142  0.97962391     0.13700
H363        H  0.40626668  0.15395919  0.86042242     0.11300
H364        H  0.35263604  0.07915497  0.83455381     0.13300
C365        C  0.43576278  0.35904816  0.55815746     0.19400
C366        C  0.45026611  0.33806607  0.57091069    -0.18700
C367        C  0.43275333  0.31047734  0.59836426    -0.10900
C368        C  0.39984547  0.30281738  0.61285434     0.21700
C369        C  0.38410201  0.32163498  0.59693083    -0.20300
C370        C  0.40163282  0.34908958  0.56965646    -0.11100
C371        C  0.38154780  0.27699513  0.64555085    -0.15300
C372        C  0.39293052  0.25629116  0.66275945    -0.29100
C373        C  0.45716436  0.39267580  0.53553366    -0.03400
C374        C  0.45285888  0.42141191  0.54116160    -0.39900
H375        H  0.47586751  0.34409113  0.56113829     0.12800
H376        H  0.44586277  0.29637902  0.60883648     0.12500
H377        H  0.35846797  0.31581791  0.60647903     0.11900
H378        H  0.38873515  0.36314233  0.55836943     0.12100
H379        H  0.35767668  0.27538466  0.65646787     0.14900
H380        H  0.41591351  0.25608950  0.65203009     0.13700
H381        H  0.47737089  0.39441023  0.51601669     0.11300
H382        H  0.43479268  0.41810623  0.56402470     0.13300
C383        C  0.18140940  0.08380580  0.86546640     0.19400
C384        C  0.17826545  0.07163745  0.90428956    -0.18700
C385        C  0.14675738  0.05851430  0.92451943    -0.10900
C386        C  0.11744954  0.05653754  0.90582783     0.21700
C387        C  0.12044614  0.06715989  0.86632688    -0.20300
C388        C  0.15204520  0.08098117  0.84649188    -0.11100
C389        C  0.08330708  0.04367908  0.92571909    -0.15300
C390        C  0.07675266  0.03445586  0.96383633    -0.29100
C391        C  0.21505040  0.09799087  0.84458542    -0.03400
C392        C  0.22530260  0.12441295  0.81776341    -0.39900
H393        H  0.20042375  0.07289523  0.91921714     0.12800
H394        H  0.14587146  0.05003345  0.95456020     0.12500
H395        H  0.09822567  0.06484368  0.85058504     0.11900
H396        H  0.15327410  0.08880671  0.81603336     0.12100
H397        H  0.06200201  0.04122635  0.90781975     0.14900
H398        H  0.09649561  0.03368506  0.98161862     0.13700
H399        H  0.23169267  0.08661487  0.85157232     0.11300
H400        H  0.20958219  0.13717822  0.81255615     0.13300
C401        C  0.42644215  0.36982908  0.92466674     0.19400
C402        C  0.39381605  0.33943620  0.92766034    -0.18700
C403        C  0.38419959  0.31116149  0.90176472    -0.10900
C404        C  0.40714217  0.31264604  0.87211682     0.21700
C405        C  0.43997367  0.34273053  0.86956637    -0.20300
C406        C  0.44955790  0.37099980  0.89537958    -0.11100
C407        C  0.39802998  0.28334792  0.84368551    -0.15300
C408        C  0.36524105  0.26031916  0.83414541    -0.29100
C409        C  0.43622238  0.39849383  0.95412560    -0.03400
C410        C  0.46334955  0.43132916  0.94926873    -0.39900
H411        H  0.37576886  0.33739448  0.95038835     0.12800
H412        H  0.35907769  0.28798739  0.90571861     0.12500
H413        H  0.45832992  0.34443083  0.84740279     0.11900
H414        H  0.47538096  0.39320049  0.89257967     0.12100
H415        H  0.41899478  0.28207717  0.82835524     0.14900
H416        H  0.34406641  0.26256619  0.84746037     0.13700
H417        H  0.42008489  0.39212692  0.97999168     0.11300
H418        H  0.47528134  0.43855925  0.92053162     0.13300
C419        C  0.13263893  0.07223623  0.57122570     0.19400
C420        C  0.15887519  0.10776467  0.57218046    -0.18700
C421        C  0.18737932  0.11788860  0.59661143    -0.10900
C422        C  0.19036854  0.09234275  0.62024335     0.21700
C423        C  0.16464110  0.05662108  0.61808454    -0.20300
C424        C  0.13619540  0.04661405  0.59382886    -0.11100
C425        C  0.21829153  0.10162146  0.64936565    -0.15300
C426        C  0.24572074  0.13419801  0.65303823    -0.29100
C427        C  0.10244301  0.06238705  0.54552780    -0.03400
C428        C  0.07174535  0.03331756  0.55242188    -0.39900
H429        H  0.15691685  0.12790373  0.55461303     0.12800
H430        H  0.20624331  0.14577571  0.59730328     0.12500
H431        H  0.16631064  0.03631778  0.63563538     0.11900
H432        H  0.11718969  0.01873515  0.59280656     0.12100
H433        H  0.21529201  0.08080423  0.66996332     0.14900
H434        H  0.25020542  0.15558990  0.63276409     0.13700
H435        H  0.10579643  0.07941778  0.52061963     0.11300
H436        H  0.06812311  0.01972222  0.58035960     0.13300
C437        C  0.09028666  0.39722875  0.62535102     0.19400
C438        C  0.05510583  0.38655224  0.62130912    -0.18700
C439        C  0.04442261  0.40591149  0.59729339    -0.10900
C440        C  0.06870743  0.43597406  0.57589539     0.21700
C441        C  0.10387266  0.44584140  0.57892553    -0.20300
C442        C  0.11464553  0.42696240  0.60371651    -0.11100
C443        C  0.05815073  0.45674686  0.54929440    -0.15300
C444        C  0.02742968  0.45610186  0.55264096    -0.29100
C445        C  0.10082772  0.37701263  0.65246047    -0.03400
C446        C  0.12939710  0.39336767  0.67427727    -0.39900
H447        H  0.03584703  0.36355899  0.63740833     0.12800
H448        H  0.01708464  0.39688845  0.59542709     0.12500
H449        H  0.12311888  0.46841581  0.56230142     0.11900
H450        H  0.14197183  0.43534364  0.60549809     0.12100
H451        H  0.07643167  0.47365083  0.52695755     0.14900
H452        H  0.01157086  0.44289922  0.57810982     0.13700
H453        H  0.08333549  0.34875365  0.65700819     0.11300
H454        H  0.14537707  0.42209935  0.67206435     0.13300
C455        C  0.31059177  0.41008667  0.61830725     0.19400
C456        C  0.32722716  0.39427716  0.59819422    -0.18700
C457        C  0.35305518  0.41378792  0.57059667    -0.10900
C458        C  0.36342342  0.44984172  0.56285885     0.21700
C459        C  0.34614768  0.46557207  0.58171701    -0.20300
C460        C  0.32012602  0.44600626  0.60948854    -0.11100
C461        C  0.39459634  0.47125567  0.53816274    -0.15300
C462        C  0.42296435  0.46839829  0.54571212    -0.29100
C463        C  0.28482114  0.38881596  0.64943433    -0.03400
C464        C  0.26057285  0.39668095  0.66206353    -0.39900
H465        H  0.32052310  0.36681384  0.60419716     0.12800
H466        H  0.36570418  0.40102429  0.55579898     0.12500
H467        H  0.35397334  0.49340103  0.57648043     0.11900
H468        H  0.30873229  0.45968076  0.62498510     0.12100
H469        H  0.39396090  0.48783041  0.51430638     0.14900
H470        H  0.42327527  0.45794662  0.57464352     0.13700
H471        H  0.28574387  0.36594887  0.66212579     0.11300
H472        H  0.25857359  0.41859457  0.64853474     0.13300
C473        C  0.05791951  0.43770119  0.90909339     0.19400
C474        C  0.08482298  0.45457214  0.88163248    -0.18700
C475        C  0.09911529  0.43562393  0.86336064    -0.10900
C476        C  0.08591583  0.39911084  0.87132438     0.21700
C477        C  0.05873243  0.38209555  0.89847433    -0.20300
C478        C  0.04527593  0.40138286  0.91786463    -0.11100
C479        C  0.09808258  0.37800397  0.84863600    -0.15300
C480        C  0.13176819  0.38987361  0.84090869    -0.29100
C481        C  0.04243793  0.45823220  0.92652572    -0.03400
C482        C  0.03347439  0.45553031  0.96451000    -0.39900
H483        H  0.09473938  0.48246814  0.87426636     0.12800
H484        H  0.11954148  0.44916131  0.84183722     0.12500
H485        H  0.04786078  0.35385136  0.90454024     0.11900
H486        H  0.02421026  0.38762341  0.93858324     0.12100
H487        H  0.07876285  0.35262092  0.83712941     0.14900
H488        H  0.15113125  0.41408944  0.85454415     0.13700
H489        H  0.03919808  0.47685466  0.90766956     0.11300
H490        H  0.03511650  0.43529685  0.98205536     0.13300
C491        C  0.31533463  0.41179845  0.87400644     0.19400
C492        C  0.33972886  0.44776838  0.87850972    -0.18700
C493        C  0.36592068  0.45798574  0.90610970    -0.10900
C494        C  0.36858504  0.43233909  0.92972914     0.21700
C495        C  0.34375103  0.39644633  0.92607357    -0.20300
C496        C  0.31738213  0.38616725  0.89844772    -0.11100
C497        C  0.39678382  0.44265237  0.95861485    -0.15300
C498        C  0.42770082  0.47160685  0.95267775    -0.29100
C499        C  0.28767177  0.40265444  0.84451989    -0.03400
C500        C  0.26792396  0.36967712  0.83080906    -0.39900
H501        H  0.33848959  0.46812599  0.86063579     0.12800
H502        H  0.38375206  0.48611078  0.90921425     0.12500
H503        H  0.34490973  0.37632849  0.94443342     0.11900
H504        H  0.29850458  0.35826298  0.89701523     0.12100
H505        H  0.39234588  0.42562333  0.98401246     0.14900
H506        H  0.43237298  0.48391142  0.92396012     0.13700
H507        H  0.28383433  0.42421533  0.83307482     0.11300
H508        H  0.27176764  0.34777162  0.84072090     0.13300
C509        C  0.05654344  0.11630488  0.60443892     0.19400
C510        C  0.04305467  0.11644850  0.64158015    -0.18700
C511        C  0.05481617  0.14818696  0.66212259    -0.10900
C512        C  0.08103594  0.18042068  0.64649439     0.21700
C513        C  0.09469151  0.18030733  0.60917158    -0.20300
C514        C  0.08254988  0.14853759  0.58836156    -0.11100
C515        C  0.09344176  0.21317824  0.67041100    -0.15300
C516        C  0.12507020  0.24178584  0.66648428    -0.29100
C517        C  0.04320579  0.08204067  0.58357122    -0.03400
C518        C  0.04028651  0.07957844  0.54440423    -0.39900
H519        H  0.02297256  0.09195258  0.65452564     0.12800
H520        H  0.04373923  0.14744208  0.69067914     0.12500
H521        H  0.11446106  0.20461874  0.59572622     0.11900
H522        H  0.09387206  0.14916117  0.56000595     0.12100
H523        H  0.07695226  0.21244158  0.69448490     0.14900
H524        H  0.14290353  0.24228346  0.64428187     0.13700
H525        H  0.03309553  0.05766707  0.60100992     0.11300
H526        H  0.04657421  0.10344366  0.52755075     0.13300
C527        C  0.08673932  0.13541128  0.92993438     0.19400
C528        C  0.10122076  0.17149527  0.93968375    -0.18700
C529        C  0.11631576  0.19811206  0.91056936    -0.10900
C530        C  0.11823768  0.18901069  0.87142531     0.21700
C531        C  0.10500899  0.15306405  0.86217464    -0.19900
C532        C  0.08877054  0.12658808  0.89085425    -0.11100
C533        C  0.13329963  0.21617290  0.83945245    -0.15300
C534        C  0.12761127  0.24418247  0.83731396    -0.29100
C535        C  0.07022938  0.10712144  0.96064494    -0.03400
C536        C  0.04012452  0.07728461  0.95394926    -0.39900
H537        H  0.10018441  0.17901126  0.96965921     0.12800
H538        H  0.12681247  0.22571576  0.91870672     0.12500
H539        H  0.10628393  0.14536470  0.83234213     0.11900
H540        H  0.07778654  0.09912839  0.88236080     0.12100
H541        H  0.14638596  0.21116626  0.81529313     0.14900
H542        H  0.11221857  0.24756744  0.86006771     0.13700
H543        H  0.08330630  0.11144283  0.98823995     0.11300
H544        H  0.02970734  0.07511695  0.92496028     0.13300
O545        O  0.17061913  0.79249179  0.19534665    -0.84600
O546        O  0.23347252  0.85149039  0.21152136    -0.81700
C547        C  0.23548256  0.87904360  0.19466293     0.98800
O548        O  0.21683794  0.89201438  0.20555653    -0.81700
O549        O  0.15918817  0.89246552  0.23030492    -0.84300
C550        C  0.13738372  0.87355233  0.20485879     1.03400
O551        O  0.12420006  0.83996237  0.20582509    -0.77100
O552        O  0.11941631  0.77331270  0.22139727    -0.77300
C553        C  0.13873471  0.77090789  0.19556224     1.03300
O554        O  0.16119457  0.77080065  0.27811371    -0.84600
O555        O  0.22125266  0.83064583  0.29360074    -0.81700
C556        C  0.24013728  0.86279042  0.30186466     0.98900
O557        O  0.23654699  0.88699247  0.28453310    -0.81700
O558        O  0.17506210  0.88149495  0.30974815    -0.84300
C559        C  0.14338783  0.87167166  0.31305908     1.03300
O560        O  0.12225847  0.85056828  0.28844489    -0.77100
O561        O  0.12729334  0.79016037  0.30280933    -0.77300
C562        C  0.14029146  0.76970243  0.30460550     1.03300
Cr563      Cr  0.19493213  0.81327154  0.24494943     1.93700
Cr564      Cr  0.19516941  0.88449284  0.25731042     1.93200
Cr565      Cr  0.12671764  0.81512725  0.25425652     1.39100
O566        O  0.17251241  0.83767337  0.25201282    -1.22400
C567        C  0.03722978  0.51859758  0.02737991    -0.01800
C568        C  0.47815607  0.96161180  0.47913993    -0.01800
C569        C  0.03939928  0.51900910  0.48172962    -0.01800
C570        C  0.01942270  0.97840683  0.48111467    -0.01800
C571        C  0.01611843  0.97798388  0.02680258    -0.01800
C572        C  0.47543628  0.95899966  0.02314433    -0.01800
C573        C  0.45810812  0.98341781  0.02365962    -0.01800
C574        C  0.02127470  0.54289644  0.47999174    -0.01800
C575        C  0.48176969  0.52684121  0.47935893    -0.01800
C576        C  0.45961184  0.98465865  0.47842231    -0.01800
C577        C  0.47997167  0.52471816  0.02613766    -0.01800
C578        C  0.01933104  0.54193979  0.02491402    -0.01800
O579        O  0.26343613  0.66209298  0.26674693    -0.84600
O580        O  0.32412560  0.71741203  0.29181262    -0.81700
C581        C  0.35502440  0.73347204  0.30291599     0.98800
O582        O  0.37770667  0.72740735  0.28712469    -0.81700
O583        O  0.36515290  0.65981281  0.30916381    -0.84300
C584        C  0.35106195  0.62633817  0.31080467     1.03400
O585        O  0.32806485  0.60766927  0.28650362    -0.77100
O586        O  0.27321527  0.62168809  0.29516499    -0.77300
C587        C  0.25550000  0.63746726  0.29207349     1.03300
O588        O  0.29256219  0.67409486  0.18848336    -0.84600
O589        O  0.35065642  0.73321638  0.21232334    -0.81700
C590        C  0.37553846  0.73170263  0.19561535     0.98900
O591        O  0.38470354  0.70963097  0.20693961    -0.81700
O592        O  0.37593228  0.64515583  0.22967323    -0.84300
C593        C  0.35586763  0.62275276  0.20507727     1.03300
O594        O  0.32421366  0.61389127  0.20414430    -0.77100
O595        O  0.26499261  0.61971360  0.21184501    -0.77300
C596        C  0.26888194  0.64246503  0.18563323     1.03300
Cr597      Cr  0.30922069  0.69456383  0.24058598     1.93700
Cr598      Cr  0.37227034  0.68424027  0.25774174     1.93200
Cr599      Cr  0.29976952  0.61943957  0.24957648     1.39100
O600        O  0.32725200  0.66620927  0.24949865    -1.22400
C601        C  0.41537875  0.59626640  0.14963929     0.19400
C602        C  0.44595771  0.61461153  0.12757118    -0.18700
C603        C  0.45870200  0.59582701  0.10606026    -0.10900
C604        C  0.44153439  0.55842258  0.10735113     0.21700
C605        C  0.41154964  0.54011787  0.13022120    -0.20300
C606        C  0.39829858  0.55881920  0.15085446    -0.11100
C607        C  0.45480339  0.53788541  0.08579196    -0.15300
C608        C  0.46490610  0.54514669  0.04818502    -0.29100
C609        C  0.40264858  0.61651042  0.17293053    -0.03400
C610        C  0.36876140  0.60480238  0.17874686    -0.39900
H611        H  0.45980636  0.64344958  0.12677916     0.12800
H612        H  0.48231968  0.61048970  0.08914456     0.12500
H613        H  0.39824878  0.51129542  0.13185920     0.11900
H614        H  0.37522350  0.54397039  0.16856274     0.12100
H615        H  0.45460037  0.51529526  0.10061173     0.14900
H616        H  0.46698803  0.56938342  0.03561316     0.13700
H617        H  0.42154600  0.64172310  0.18521625     0.11300
H618        H  0.34977427  0.58105552  0.16404498     0.13300
C619        C  0.41056573  0.60622556  0.37521024     0.19400
C620        C  0.43043705  0.61935905  0.40908567    -0.18700
C621        C  0.44812849  0.60252478  0.42483459    -0.10900
C622        C  0.44685266  0.57271687  0.40637321     0.21700
C623        C  0.42788114  0.56028046  0.37191008    -0.20300
C624        C  0.40967358  0.57663469  0.35661450    -0.11100
C625        C  0.46522630  0.55429824  0.42246849    -0.15300
C626        C  0.46568837  0.54847011  0.46111616    -0.29100
C627        C  0.39324637  0.62528059  0.35772923    -0.03400
C628        C  0.36356113  0.60805548  0.33779541    -0.39900
H629        H  0.43213747  0.64255665  0.42341740     0.12800
H630        H  0.46325748  0.61314385  0.45105830     0.12500
H631        H  0.42683853  0.53759077  0.35704890     0.11900
H632        H  0.39565750  0.56663589  0.32961997     0.12100
H633        H  0.47595951  0.54276647  0.40220176     0.14900
H634        H  0.44992790  0.55582060  0.47877454     0.13700
H635        H  0.40620875  0.65413850  0.35946307     0.11300
H636        H  0.35013419  0.57914005  0.33735256     0.13300
C637        C  0.43939488  0.85925022  0.05862455     0.19400
C638        C  0.45481500  0.83975726  0.07350149    -0.18700
C639        C  0.43652910  0.81097391  0.09940975    -0.10900
C640        C  0.40210177  0.80081887  0.11041680     0.21700
C641        C  0.38587551  0.81830520  0.09238289    -0.20300
C642        C  0.40414360  0.84695850  0.06666854    -0.11100
C643        C  0.38252131  0.77384333  0.14175970    -0.15300
C644        C  0.39531373  0.75650750  0.16328813    -0.29100
C645        C  0.46066696  0.89348668  0.03697599    -0.03400
C646        C  0.45457816  0.92124624  0.04158279    -0.39900
H647        H  0.48153647  0.84779971  0.06654823     0.12800
H648        H  0.45002171  0.79778739  0.11136159     0.12500
H649        H  0.35918220  0.81058458  0.09923963     0.11900
H650        H  0.39081396  0.86003994  0.05383890     0.12100
H651        H  0.35643595  0.76882115  0.14836967     0.14900
H652        H  0.42067797  0.75963440  0.15703456     0.13700
H653        H  0.48215238  0.89640399  0.01892604     0.11300
H654        H  0.43439274  0.91649139  0.06224487     0.13300
C655        C  0.18047765  0.58703122  0.36559238     0.19400
C656        C  0.17757590  0.57464033  0.40431840    -0.18700
C657        C  0.14597616  0.56042370  0.42454113    -0.10900
C658        C  0.11631337  0.55768072  0.40602048     0.21700
C659        C  0.11917491  0.56918047  0.36686050    -0.20300
C660        C  0.15083108  0.58387746  0.34693430    -0.11100
C661        C  0.08200199  0.54349473  0.42588720    -0.15300
C662        C  0.07552395  0.53342287  0.46381252    -0.29100
C663        C  0.21415298  0.60123153  0.34458745    -0.03400
C664        C  0.22377501  0.62592623  0.31579071    -0.39900
H665        H  0.19994383  0.57628403  0.41911067     0.12800
H666        H  0.14530502  0.55170040  0.45442653     0.12500
H667        H  0.09677842  0.56676164  0.35145176     0.11900
H668        H  0.15176855  0.59192894  0.31661769     0.12100
H669        H  0.06068454  0.54146691  0.40834283     0.14900
H670        H  0.09518542  0.53205437  0.48115102     0.13700
H671        H  0.23156869  0.59125491  0.35328704     0.11300
H672        H  0.20751379  0.63767006  0.30860161     0.13300
C673        C  0.42559767  0.86793807  0.42774040     0.19400
C674        C  0.39196749  0.83889917  0.42874593    -0.18700
C675        C  0.38204949  0.81080289  0.40240699    -0.10900
C676        C  0.40577589  0.81101668  0.37452170     0.21700
C677        C  0.43964911  0.83951589  0.37439377    -0.20300
C678        C  0.44946397  0.86761192  0.40050046    -0.11100
C679        C  0.39657562  0.78208838  0.34543589    -0.15300
C680        C  0.36398345  0.76030304  0.33397553    -0.29100
C681        C  0.43555390  0.89712941  0.45664904    -0.03400
C682        C  0.46298338  0.92975460  0.45107884    -0.39900
H683        H  0.37327310  0.83794027  0.44998947     0.12800
H684        H  0.35600504  0.78881811  0.40455719     0.12500
H685        H  0.45864957  0.84020175  0.35375711     0.11900
H686        H  0.47596529  0.88867527  0.39946881     0.12100
H687        H  0.41758985  0.78004026  0.33125897     0.14900
H688        H  0.34280234  0.76316293  0.34623602     0.13700
H689        H  0.41934460  0.89146488  0.48238321     0.11300
H690        H  0.47483805  0.93598610  0.42226379     0.13300
C691        C  0.12927972  0.57266254  0.07442834     0.19400
C692        C  0.15385492  0.60863505  0.07846463    -0.18700
C693        C  0.18219789  0.61861809  0.10320672    -0.10900
C694        C  0.18673799  0.59257027  0.12387001     0.21700
C695        C  0.16239969  0.55661398  0.11924995    -0.20300
C696        C  0.13411385  0.54672579  0.09472866    -0.11100
C697        C  0.21490248  0.60163031  0.15252454    -0.15300
C698        C  0.24413125  0.63310428  0.15322732    -0.29100
C699        C  0.09945989  0.56262874  0.04797190    -0.03400
C700        C  0.06920059  0.53270028  0.05366568    -0.39900
H701        H  0.15071849  0.62908946  0.06304308     0.12800
H702        H  0.19980086  0.64668959  0.10673993     0.12500
H703        H  0.16521685  0.53602079  0.13480046     0.11900
H704        H  0.11624772  0.51870243  0.09153963     0.12100
H705        H  0.21095428  0.58155669  0.17462067     0.14900
H706        H  0.24931138  0.65330457  0.13095399     0.13700
H707        H  0.10271833  0.58011493  0.02357426     0.11300
H708        H  0.06577326  0.51842563  0.08111312     0.13300
C709        C  0.09082423  0.89624270  0.12333060     0.19400
C710        C  0.05576614  0.88539698  0.11776648    -0.18700
C711        C  0.04569924  0.90539149  0.09391215    -0.10900
C712        C  0.07052596  0.93648809  0.07443973     0.21700
C713        C  0.10561434  0.94636708  0.07860024    -0.20300
C714        C  0.11573463  0.92669426  0.10309589    -0.11100
C715        C  0.06044134  0.95824906  0.04871951    -0.15300
C716        C  0.02972381  0.95760330  0.05247799    -0.29100
C717        C  0.10070477  0.87571056  0.15086827    -0.03400
C718        C  0.12778665  0.89214359  0.17484631    -0.39900
H719        H  0.03609624  0.86181627  0.13265093     0.12800
H720        H  0.01840490  0.89612187  0.09064733     0.12500
H721        H  0.12527690  0.96962626  0.06327648     0.11900
H722        H  0.14301260  0.93517670  0.10600413     0.12100
H723        H  0.07875086  0.97537553  0.02652877     0.14900
H724        H  0.01424069  0.94424320  0.07813080     0.13700
H725        H  0.08382634  0.84716363  0.15387283     0.11300
H726        H  0.14296614  0.92100693  0.17375547     0.13300
C727        C  0.31183886  0.91200617  0.12086793     0.19400
C728        C  0.32965130  0.89616755  0.10342319    -0.18700
C729        C  0.35547578  0.91472332  0.07556830    -0.10900
C730        C  0.36473544  0.94999109  0.06486274     0.21700
C731        C  0.34623220  0.96567826  0.08102577    -0.20300
C732        C  0.32014940  0.94699137  0.10910659    -0.11100
C733        C  0.39560784  0.97069533  0.03940485    -0.15300
C734        C  0.42408843  0.96792729  0.04667522    -0.29100
C735        C  0.28603417  0.89156397  0.15223380    -0.03400
C736        C  0.26023729  0.89795892  0.16240618    -0.39900
H737        H  0.32380973  0.86935883  0.11169205     0.12800
H738        H  0.36894236  0.90177654  0.06295028     0.12500
H739        H  0.35307891  0.99288192  0.07339135     0.11900
H740        H  0.30762096  0.96056861  0.12245460     0.12100
H741        H  0.39484829  0.98714978  0.01548763     0.14900
H742        H  0.42481882  0.95755032  0.07553432     0.13700
H743        H  0.28804741  0.87008248  0.16702035     0.11300
H744        H  0.25729258  0.91865743  0.14720410     0.13300
C745        C  0.05991678  0.93833411  0.40967738     0.19400
C746        C  0.08785530  0.95489665  0.38349398    -0.18700
C747        C  0.10150398  0.93522555  0.36564567    -0.10900
C748        C  0.08678190  0.89842975  0.37297880     0.21700
C749        C  0.05878571  0.88182049  0.39913103    -0.20300
C750        C  0.04577050  0.90173571  0.41791065    -0.11100
C751        C  0.09828232  0.87679668  0.35043180    -0.15300
C752        C  0.13186427  0.88815574  0.34298241    -0.29100
C753        C  0.04482306  0.95941091  0.42631999    -0.03400
C754        C  0.03505961  0.95640412  0.46397732    -0.39900
H755        H  0.09894784  0.98304080  0.37665997     0.12800
H756        H  0.12261388  0.94847549  0.34484454     0.12500
H757        H  0.04681583  0.85340242  0.40468865     0.11900
H758        H  0.02380333  0.88828157  0.43757069     0.12100
H759        H  0.07864197  0.85189302  0.33828039     0.14900
H760        H  0.15143562  0.91191517  0.35716673     0.13700
H761        H  0.04253309  0.97851004  0.40729632     0.11300
H762        H  0.03613294  0.93590657  0.48162135     0.13300
C763        C  0.31482056  0.91362305  0.37432420     0.19400
C764        C  0.33981395  0.94943961  0.37862137    -0.18700
C765        C  0.36631001  0.95917686  0.40582664    -0.10900
C766        C  0.36858603  0.93315856  0.42922661     0.21700
C767        C  0.34303157  0.89756347  0.42600229    -0.20300
C768        C  0.31639952  0.88779150  0.39889317    -0.11100
C769        C  0.39688992  0.94271038  0.45777812    -0.15300
C770        C  0.42807093  0.97116853  0.45181844    -0.29100
C771        C  0.28737842  0.90461375  0.34449456    -0.03400
C772        C  0.26701228  0.87139554  0.33167256    -0.39900
H773        H  0.33893115  0.97001395  0.36076059     0.12800
H774        H  0.38469563  0.98713458  0.40877157     0.12500
H775        H  0.34381989  0.87721780  0.44432537     0.11900
H776        H  0.29706750  0.86004952  0.39790356     0.12100
H777        H  0.39214171  0.92564251  0.48320587     0.14900
H778        H  0.43300054  0.98352603  0.42310027     0.13700
H779        H  0.28444079  0.92635205  0.33183597     0.11300
H780        H  0.27000148  0.84930035  0.34277539     0.13300
C781        C  0.05387825  0.61580970  0.10492525     0.19400
C782        C  0.04531545  0.61489723  0.14466782    -0.18700
C783        C  0.05818881  0.64626595  0.16616115    -0.10900
C784        C  0.08053396  0.67936856  0.14871837     0.21700
C785        C  0.08910857  0.68049542  0.10879649    -0.20300
C786        C  0.07593004  0.64903470  0.08711227    -0.11100
C787        C  0.09392255  0.71185336  0.17324369    -0.15300
C788        C  0.12456999  0.74141755  0.16708141    -0.29100
C789        C  0.04009114  0.58145401  0.08372576    -0.03400
C790        C  0.03670406  0.57847824  0.04456657    -0.39900
H791        H  0.02844133  0.58976240  0.15915983     0.12800
H792        H  0.05105302  0.64458631  0.19679750     0.12500
H793        H  0.10574893  0.70558408  0.09418293     0.11900
H794        H  0.08365744  0.65085952  0.05671920     0.12100
H795        H  0.07916091  0.71016775  0.19945914     0.14900
H796        H  0.14102614  0.74271253  0.14276393     0.13700
H797        H  0.03085955  0.55717591  0.10118362     0.11300
H798        H  0.04220244  0.60191601  0.02734133     0.13300
C799        C  0.08735116  0.63391130  0.42873608     0.19400
C800        C  0.10748024  0.66985034  0.43881965    -0.18700
C801        C  0.12229060  0.69640001  0.40954850    -0.10900
C802        C  0.11817200  0.68722690  0.36967291     0.21700
C803        C  0.09927694  0.65126466  0.35976116    -0.19900
C804        C  0.08357690  0.62500224  0.38880973    -0.11100
C805        C  0.13292333  0.71445871  0.33772883    -0.15300
C806        C  0.12987841  0.74413317  0.33796363    -0.29100
C807        C  0.07113684  0.60577319  0.45984210    -0.03400
C808        C  0.03947982  0.57742805  0.45507009    -0.39900
H809        H  0.11114811  0.67742654  0.46933306     0.12800
H810        H  0.13722457  0.72397318  0.41800852     0.12500
H811        H  0.09592264  0.64351838  0.32929872     0.11900
H812        H  0.06872873  0.59762849  0.37985620     0.12100
H813        H  0.14296046  0.70812442  0.31166671     0.14900
H814        H  0.11701998  0.74874316  0.36265963     0.13700
H815        H  0.08564710  0.60870528  0.48614345     0.11300
H816        H  0.02711339  0.57690293  0.42777527     0.13300
O817        O  0.17057423  0.79229479  0.69533170    -0.84600
O818        O  0.23350813  0.84995417  0.71202512    -0.81700
C819        C  0.23517312  0.87697120  0.69426898     0.98800
O820        O  0.21703217  0.89048181  0.70530688    -0.81700
O821        O  0.16035822  0.89279300  0.73015576    -0.84300
C822        C  0.13812242  0.87410798  0.70501306     1.03400
O823        O  0.12469607  0.84051669  0.70567958    -0.77100
O824        O  0.11908839  0.77343731  0.72049274    -0.77300
C825        C  0.13871033  0.77087884  0.69514462     1.03300
O826        O  0.15974333  0.76964709  0.77766725    -0.84600
O827        O  0.22013866  0.82886293  0.79436113    -0.81700
C828        C  0.23942308  0.86093021  0.80266967     0.98900
O829        O  0.23663826  0.88541983  0.78477670    -0.81700
O830        O  0.17556259  0.88165952  0.80945374    -0.84300
C831        C  0.14390602  0.87213273  0.81264771     1.03300
O832        O  0.12261113  0.85077281  0.78829385    -0.77100
O833        O  0.12616079  0.78948885  0.80211975    -0.77300
C834        C  0.13855691  0.76851945  0.80378345     1.03300
Cr835      Cr  0.19433392  0.81215773  0.74522702     1.93700
Cr836      Cr  0.19569686  0.88386866  0.75719547     1.93200
Cr837      Cr  0.12656829  0.81514053  0.75381981     1.39100
O838        O  0.17238009  0.83707937  0.75207325    -1.22400
C839        C  0.03709678  0.51850030  0.52731692    -0.01800
C840        C  0.47822842  0.96176418  0.97794159    -0.01800
C841        C  0.03969635  0.51864160  0.98183189    -0.01800
C842        C  0.01853637  0.97831633  0.98144284    -0.01800
C843        C  0.01688890  0.97773860  0.52643388    -0.01800
C844        C  0.47530547  0.95943373  0.52437396    -0.01800
C845        C  0.45719088  0.98314512  0.52379671    -0.01800
C846        C  0.02106560  0.54197541  0.97952900    -0.01800
C847        C  0.48144339  0.52639797  0.98057379    -0.01800
C848        C  0.45994886  0.98513249  0.97826547    -0.01800
C849        C  0.48043758  0.52500762  0.52488853    -0.01800
C850        C  0.01972712  0.54234163  0.52539496    -0.01800
O851        O  0.26445623  0.66156426  0.76630696    -0.84600
O852        O  0.32579623  0.71678479  0.79103139    -0.81700
C853        C  0.35694937  0.73315732  0.80128692     0.98800
O854        O  0.37928272  0.72674189  0.78517568    -0.81700
O855        O  0.36604770  0.65873865  0.80781588    -0.84300
C856        C  0.35166179  0.62520217  0.80952300     1.03400
O857        O  0.32845695  0.60657651  0.78544724    -0.77100
O858        O  0.27390096  0.62077907  0.79424089    -0.77300
C859        C  0.25635883  0.63675221  0.79144291     1.03300
O860        O  0.29312902  0.67330522  0.68782001    -0.84600
O861        O  0.35176132  0.73219235  0.71172732    -0.81700
C862        C  0.37614515  0.73029442  0.69430175     0.98900
O863        O  0.38503543  0.70784896  0.70504829    -0.81700
O864        O  0.37622976  0.64347696  0.72884216    -0.84300
C865        C  0.35612229  0.62068543  0.70463776     1.03300
O866        O  0.32459047  0.61228618  0.70318870    -0.77100
O867        O  0.26562735  0.61876949  0.71082336    -0.77300
C868        C  0.26962362  0.64158786  0.68466378     1.03300
Cr869      Cr  0.31024250  0.69376370  0.73991975     1.93700
Cr870      Cr  0.37306504  0.68298791  0.75626082     1.93200
Cr871      Cr  0.30030706  0.61836886  0.74856265     1.39100
O872        O  0.32801256  0.66513908  0.74845418    -1.22400
C873        C  0.41649532  0.59426375  0.65160008     0.19400
C874        C  0.44497281  0.61316630  0.62663181    -0.18700
C875        C  0.45840505  0.59517124  0.60497358    -0.10900
C876        C  0.44399048  0.55804868  0.60880052     0.21700
C877        C  0.41625883  0.53928085  0.63479453    -0.20300
C878        C  0.40225154  0.55717363  0.65571108    -0.11100
C879        C  0.45756435  0.53835776  0.58614382    -0.15300
C880        C  0.46588510  0.54534465  0.54801877    -0.29100
C881        C  0.40310698  0.61392734  0.67458759    -0.03400
C882        C  0.36911919  0.60201920  0.67953229    -0.39900
H883        H  0.45657442  0.64183332  0.62362477     0.12800
H884        H  0.48042155  0.61034054  0.58582883     0.12500
H885        H  0.40510534  0.51069447  0.63838609     0.11900
H886        H  0.38077716  0.54219069  0.67560590     0.12100
H887        H  0.45885087  0.51633709  0.60050340     0.14900
H888        H  0.46625243  0.56878707  0.53555424     0.13700
H889        H  0.42170292  0.63940112  0.68663631     0.11300
H890        H  0.35046882  0.57790470  0.66507567     0.13300
C891        C  0.41039087  0.60429536  0.87384425     0.19400
C892        C  0.42798073  0.61590141  0.90927048    -0.18700
C893        C  0.44527451  0.59892679  0.92546755    -0.10900
C894        C  0.44572766  0.57033497  0.90611278     0.21700
C895        C  0.42903048  0.55941268  0.87005966    -0.20300
C896        C  0.41122749  0.57600889  0.85417971    -0.11100
C897        C  0.46387802  0.55197597  0.92289025    -0.15300
C898        C  0.46454314  0.54693056  0.96172089    -0.29100
C899        C  0.39357869  0.62367343  0.85621561    -0.03400
C900        C  0.36402778  0.60665619  0.83619379    -0.39900
H901        H  0.42825359  0.63808354  0.92444896     0.12800
H902        H  0.45883167  0.60864259  0.95278780     0.12500
H903        H  0.42945225  0.53777287  0.85441860     0.11900
H904        H  0.39884431  0.56728757  0.82608073     0.12100
H905        H  0.47521990  0.54073693  0.90305011     0.14900
H906        H  0.44857859  0.55411370  0.97923342     0.13700
H907        H  0.40660828  0.65251158  0.85828352     0.11300
H908        H  0.35064951  0.57773145  0.83546488     0.13300
C909        C  0.43995558  0.86035548  0.56013243     0.19400
C910        C  0.45541695  0.84065495  0.57422060    -0.18700
C911        C  0.43786051  0.81276635  0.60134442    -0.10900
C912        C  0.40403710  0.80353903  0.61389329     0.21700
C913        C  0.38768569  0.82128194  0.59685651    -0.20300
C914        C  0.40523277  0.84902631  0.57001395    -0.11100
C915        C  0.38533167  0.77733825  0.64597136    -0.15300
C916        C  0.39528794  0.75487998  0.66158811    -0.29100
C917        C  0.46070493  0.89417555  0.53781298    -0.03400
C918        C  0.45518731  0.92214067  0.54352039    -0.39900
H919        H  0.48164043  0.84789702  0.56575812     0.12800
H920        H  0.45152206  0.79974003  0.61331651     0.12500
H921        H  0.36145179  0.81431682  0.60514374     0.11900
H922        H  0.39187470  0.86230084  0.55781284     0.12100
H923        H  0.36205299  0.77667162  0.65750847     0.14900
H924        H  0.41752028  0.75363662  0.64994454     0.13700
H925        H  0.48120275  0.89663765  0.51831150     0.11300
H926        H  0.43707404  0.91836755  0.56654244     0.13300
C927        C  0.18091745  0.58573429  0.86482425     0.19400
C928        C  0.17756417  0.57160917  0.90285241    -0.18700
C929        C  0.14600118  0.55753831  0.92328197    -0.10900
C930        C  0.11681205  0.55677353  0.90570662     0.21700
C931        C  0.12002662  0.56971045  0.86709165    -0.20300
C932        C  0.15162284  0.58425210  0.84699706    -0.11100
C933        C  0.08250286  0.54271769  0.92577540    -0.15300
C934        C  0.07606149  0.53337841  0.96397344    -0.29100
C935        C  0.21458051  0.59989832  0.84357093    -0.03400
C936        C  0.22465726  0.62523456  0.81534805    -0.39900
H937        H  0.19955743  0.57173357  0.91694456     0.12800
H938        H  0.14483225  0.54714874  0.95249883     0.12500
H939        H  0.09791446  0.56852603  0.85218102     0.11900
H940        H  0.15274030  0.59348796  0.81714646     0.12100
H941        H  0.06110013  0.54025057  0.90805438     0.14900
H942        H  0.09615235  0.53332220  0.98176771     0.13700
H943        H  0.23163585  0.58928266  0.85160509     0.11300
H944        H  0.20878671  0.63754802  0.80872441     0.13300
C945        C  0.42730605  0.86848983  0.92498587     0.19400
C946        C  0.39480853  0.83782853  0.92771710    -0.18700
C947        C  0.38537072  0.80986615  0.90131683    -0.10900
C948        C  0.40840453  0.81181949  0.87152041     0.21700
C949        C  0.44126498  0.84196257  0.86956200    -0.20300
C950        C  0.45061684  0.86997456  0.89577357    -0.11100
C951        C  0.39930489  0.78288838  0.84242210    -0.15300
C952        C  0.36653647  0.76061457  0.83180398    -0.29100
C953        C  0.43673253  0.89730130  0.95434330    -0.03400
C954        C  0.46305573  0.93063935  0.94889046    -0.39900
H955        H  0.37661142  0.83546292  0.95042757     0.12800
H956        H  0.36025606  0.78657558  0.90483722     0.12500
H957        H  0.45976888  0.84400285  0.84740054     0.11900
H958        H  0.47635962  0.89236296  0.89324862     0.12100
H959        H  0.42029880  0.78121503  0.82768402     0.14900
H960        H  0.34551993  0.76348252  0.84459148     0.13700
H961        H  0.42080562  0.89064248  0.98041033     0.11300
H962        H  0.47469370  0.93783151  0.91998294     0.13300
C963        C  0.13000699  0.57131725  0.57317328     0.19400
C964        C  0.15551041  0.60707167  0.57582317    -0.18700
C965        C  0.18423604  0.61692476  0.59988103    -0.10900
C966        C  0.18833146  0.59094591  0.62131586     0.21700
C967        C  0.16313468  0.55509621  0.61786793    -0.20300
C968        C  0.13437269  0.54535169  0.59408113    -0.11100
C969        C  0.21676938  0.60004710  0.64976963    -0.15300
C970        C  0.24521704  0.63216634  0.65183219    -0.29100
C971        C  0.09985670  0.56164071  0.54729872    -0.03400
C972        C  0.06928439  0.53215209  0.55335328    -0.39900
H973        H  0.15281908  0.62754747  0.55983833     0.12800
H974        H  0.20245048  0.64494104  0.60220708     0.12500
H975        H  0.16553465  0.53449269  0.63394506     0.11900
H976        H  0.11577638  0.51742809  0.59196730     0.12100
H977        H  0.21339931  0.57957346  0.67106155     0.14900
H978        H  0.25002519  0.65291153  0.63044322     0.13700
H979        H  0.10317739  0.57913946  0.52286396     0.11300
H980        H  0.06578746  0.51797316  0.58088469     0.13300
C981        C  0.09079601  0.89690231  0.62498944     0.19400
C982        C  0.05580944  0.88670685  0.62043752    -0.18700
C983        C  0.04584287  0.90657039  0.59637414    -0.10900
C984        C  0.07061449  0.93659839  0.57538168     0.21700
C985        C  0.10562159  0.94594904  0.57878549    -0.20300
C986        C  0.11570595  0.92655884  0.60370130    -0.11100
C987        C  0.06053873  0.95781081  0.54897042    -0.15300
C988        C  0.02990008  0.95731792  0.55238996    -0.29100
C989        C  0.10063711  0.87645369  0.65249034    -0.03400
C990        C  0.12827399  0.89286943  0.67562496    -0.39900
H991        H  0.03616988  0.86381836  0.63630708     0.12800
H992        H  0.01864377  0.89806548  0.59433439     0.12500
H993        H  0.12523124  0.96855246  0.56252777     0.11900
H994        H  0.14292078  0.93453903  0.60601403     0.12100
H995        H  0.07887127  0.97455790  0.52658079     0.14900
H996        H  0.01400090  0.94434015  0.57790293     0.13700
H997        H  0.08347909  0.84800393  0.65598487     0.11300
H998        H  0.14374754  0.92170103  0.67418867     0.13300
C999        C  0.30906745  0.90824216  0.61696904     0.19400
C1000       C  0.32732525  0.89300488  0.59919166    -0.18700
C1001       C  0.35333963  0.91227674  0.57168263    -0.10900
C1002       C  0.36235254  0.94764420  0.56171034     0.21700
C1003       C  0.34302237  0.96246093  0.57765142    -0.20300
C1004       C  0.31678651  0.94310846  0.60533111    -0.11100
C1005       C  0.39397725  0.96949171  0.53766220    -0.15300
C1006       C  0.42251096  0.96702230  0.54575891    -0.29100
C1007       C  0.28388607  0.88774220  0.64899643    -0.03400
C1008       C  0.25878243  0.89472031  0.66070017    -0.39900
H1009       H  0.32193092  0.86628243  0.60719955     0.12800
H1010       H  0.36733700  0.89995619  0.55898846     0.12500
H1011       H  0.34951758  0.98965090  0.57043393     0.11900
H1012       H  0.30392715  0.95631275  0.61871111     0.12100
H1013       H  0.39362688  0.98630047  0.51388310     0.14900
H1014       H  0.42240017  0.95621509  0.57457043     0.13700
H1015       H  0.28620716  0.86631139  0.66346321     0.11300
H1016       H  0.25545535  0.91523257  0.64565164     0.13300
C1017       C  0.06001228  0.93848582  0.91022573     0.19400
C1018       C  0.08774031  0.95516178  0.88373488    -0.18700
C1019       C  0.10161750  0.93572851  0.86572597    -0.10900
C1020       C  0.08729585  0.89897647  0.87307770     0.21700
C1021       C  0.05947079  0.88222081  0.89946997    -0.20300
C1022       C  0.04634543  0.90194768  0.91854775    -0.11100
C1023       C  0.09899778  0.87746187  0.85044907    -0.15300
C1024       C  0.13254719  0.88918582  0.84217305    -0.29100
C1025       C  0.04454718  0.95937028  0.92680791    -0.03400
C1026       C  0.03457713  0.95648949  0.96443694    -0.39900
H1027       H  0.09849477  0.98323125  0.87674752     0.12800
H1028       H  0.12256637  0.94913167  0.84476595     0.12500
H1029       H  0.04777025  0.85383376  0.90507995     0.11900
H1030       H  0.02467094  0.88835411  0.93855282     0.12100
H1031       H  0.07946112  0.85206186  0.83921348     0.14900
H1032       H  0.15215577  0.91342066  0.85552607     0.13700
H1033       H  0.04199409  0.97816835  0.90757203     0.11300
H1034       H  0.03532472  0.93580634  0.98207422     0.13300
C1035       C  0.31323135  0.91135070  0.87673002     0.19400
C1036       C  0.33732366  0.94738171  0.88169913    -0.18700
C1037       C  0.36415678  0.95762695  0.90855003    -0.10900
C1038       C  0.36780160  0.93195488  0.93106725     0.21700
C1039       C  0.34305097  0.89600578  0.92728764    -0.20300
C1040       C  0.31603252  0.88570789  0.90042797    -0.11100
C1041       C  0.39690037  0.94224982  0.95892625    -0.15300
C1042       C  0.42749341  0.97174261  0.95297516    -0.29100
C1043       C  0.28567992  0.90213522  0.84686146    -0.03400
C1044       C  0.26589639  0.86913743  0.83307307    -0.39900
H1045       H  0.33553807  0.96780073  0.86451055     0.12800
H1046       H  0.38179036  0.98576585  0.91179803     0.12500
H1047       H  0.34487318  0.87579990  0.94482289     0.11900
H1048       H  0.29746854  0.85773300  0.89875793     0.12100
H1049       H  0.39332315  0.92491928  0.98384026     0.14900
H1050       H  0.43124948  0.98519889  0.92503645     0.13700
H1051       H  0.28229468  0.92378373  0.83474734     0.11300
H1052       H  0.26904238  0.84703714  0.84387113     0.13300
C1053       C  0.05531838  0.61437076  0.60662380     0.19400
C1054       C  0.04340785  0.61441419  0.64468554    -0.18700
C1055       C  0.05657612  0.64598302  0.66582345    -0.10900
C1056       C  0.08241887  0.67822754  0.64970739     0.21700
C1057       C  0.09474104  0.67812037  0.61161213    -0.20300
C1058       C  0.08136194  0.64648935  0.59034860    -0.11100
C1059       C  0.09531806  0.71099285  0.67376102    -0.15300
C1060       C  0.12516718  0.74126942  0.66697194    -0.29100
C1061       C  0.04054782  0.58027861  0.58513128    -0.03400
C1062       C  0.03764163  0.57833298  0.54591273    -0.39900
H1063       H  0.02347295  0.58999014  0.65792610     0.12800
H1064       H  0.04659992  0.64515171  0.69505182     0.12500
H1065       H  0.11432405  0.70230017  0.59778963     0.11900
H1066       H  0.09171037  0.64718107  0.56138196     0.12100
H1067       H  0.08051150  0.70926682  0.69995321     0.14900
H1068       H  0.14185759  0.74323656  0.64266612     0.13700
H1069       H  0.02999457  0.55565291  0.60217685     0.11300
H1070       H  0.04459851  0.60248418  0.52932221     0.13300
C1071       C  0.08620308  0.63268106  0.92763245     0.19400
C1072       C  0.10612879  0.66867390  0.93750458    -0.18700
C1073       C  0.12036322  0.69508135  0.90807590    -0.10900
C1074       C  0.11583166  0.68570913  0.86827341     0.21700
C1075       C  0.09705514  0.64971709  0.85852949    -0.19900
C1076       C  0.08199462  0.62356753  0.88775409    -0.11100
C1077       C  0.13038402  0.71282772  0.83629911    -0.15300
C1078       C  0.12725629  0.74243078  0.83661508    -0.29100
C1079       C  0.07036567  0.60479485  0.95896155    -0.03400
C1080       C  0.03902228  0.57608135  0.95414292    -0.39900
H1081       H  0.11007007  0.67639072  0.96796275     0.12800
H1082       H  0.13522860  0.72271327  0.91635293     0.12500
H1083       H  0.09339662  0.64185503  0.82810293     0.11900
H1084       H  0.06729396  0.59613846  0.87892927     0.12100
H1085       H  0.14079492  0.70669931  0.81040963     0.14900
H1086       H  0.11406533  0.74681492  0.86113205     0.13700
H1087       H  0.08465913  0.60835577  0.98552882     0.11300
H1088       H  0.02684499  0.57485464  0.92659054     0.13300
O1089       O  0.67065648  0.29383074  0.19509870    -0.84600
O1090       O  0.73333950  0.35168178  0.21247927    -0.81700
C1091       C  0.73612367  0.37978350  0.19619250     0.98800
O1092       O  0.71846670  0.39362533  0.20790608    -0.81700
O1093       O  0.66033153  0.39426864  0.22910893    -0.84300
C1094       C  0.63929664  0.37562831  0.20289657     1.03400
O1095       O  0.62555816  0.34201699  0.20387622    -0.77100
O1096       O  0.61899034  0.27490358  0.21950693    -0.77300
C1097       C  0.63875448  0.27255107  0.19430272     1.03300
O1098       O  0.65906950  0.27118315  0.27761226    -0.84600
O1099       O  0.71954859  0.33013266  0.29481863    -0.81700
C1100       C  0.73761066  0.36196342  0.30487835     0.98900
O1101       O  0.73443384  0.38661868  0.28805865    -0.81700
O1102       O  0.67254483  0.38183698  0.30975515    -0.84300
C1103       C  0.64084503  0.37226516  0.31163372     1.03300
O1104       O  0.62055917  0.35164177  0.28613141    -0.77100
O1105       O  0.62463121  0.29055957  0.30088695    -0.77300
C1106       C  0.63726072  0.26978012  0.30309416     1.03300
Cr1107     Cr  0.69397722  0.31372213  0.24537408     1.93700
Cr1108     Cr  0.69468840  0.38527871  0.25841906     1.93200
Cr1109     Cr  0.62597006  0.31645958  0.25241523     1.39100
O1110       O  0.67184367  0.33854750  0.25204032    -1.22400
C1111       C  0.53841630  0.01976374  0.02752683    -0.01800
C1112       C  0.97689607  0.46058960  0.47783526    -0.01800
C1113       C  0.54020021  0.02046438  0.48296283    -0.01800
C1114       C  0.51709291  0.47843184  0.48123001    -0.01800
C1115       C  0.51531114  0.47834558  0.02793952    -0.01800
C1116       C  0.97479314  0.45784907  0.02388946    -0.01800
C1117       C  0.95639289  0.48129753  0.02300842    -0.01800
C1118       C  0.52167747  0.04389646  0.48038574    -0.01800
C1119       C  0.98299690  0.02578646  0.47928301    -0.01800
C1120       C  0.95857137  0.48386251  0.47807745    -0.01800
C1121       C  0.97983484  0.02353327  0.02429967    -0.01800
C1122       C  0.52112049  0.04360252  0.02560233    -0.01800
O1123       O  0.76305376  0.15859381  0.26785348    -0.84600
O1124       O  0.82327206  0.21410964  0.29392525    -0.81700
C1125       C  0.85429901  0.23088464  0.30446079     0.98800
O1126       O  0.87724180  0.22548056  0.28819202    -0.81700
O1127       O  0.86637313  0.15798262  0.30843265    -0.84300
C1128       C  0.85269371  0.12451751  0.30940252     1.03400
O1129       O  0.82945048  0.10591651  0.28534004    -0.77100
O1130       O  0.77369965  0.11841739  0.29520398    -0.77300
C1131       C  0.75546568  0.13366676  0.29264349     1.03300
O1132       O  0.79248222  0.17272424  0.18981454    -0.84600
O1133       O  0.84965686  0.23198200  0.21491596    -0.81700
C1134       C  0.87466544  0.23137249  0.19746068     0.98900
O1135       O  0.88435277  0.20939303  0.20745428    -0.81700
O1136       O  0.87720855  0.14499537  0.22848246    -0.84300
C1137       C  0.85722832  0.12215976  0.20417241     1.03300
O1138       O  0.82546669  0.11294923  0.20330936    -0.77100
O1139       O  0.76564021  0.11778727  0.21170761    -0.77300
C1140       C  0.76933035  0.14096565  0.18611899     1.03300
Cr1141     Cr  0.80868013  0.19220075  0.24228595     1.93700
Cr1142     Cr  0.87267539  0.18313930  0.25768700     1.93200
Cr1143     Cr  0.80064855  0.11750496  0.24913755     1.39100
O1144       O  0.82751018  0.16437908  0.24991812    -1.22400
C1145       C  0.91718167  0.09499724  0.15025103     0.19400
C1146       C  0.94716098  0.11327419  0.12718499    -0.18700
C1147       C  0.95974217  0.09445097  0.10543503    -0.10900
C1148       C  0.94313607  0.05706885  0.10756158     0.21700
C1149       C  0.91412988  0.03890114  0.13196728    -0.20300
C1150       C  0.90083055  0.05760824  0.15261565    -0.11100
C1151       C  0.95578574  0.03646832  0.08491222    -0.15300
C1152       C  0.96467639  0.04357549  0.04691976    -0.29100
C1153       C  0.90430470  0.11533583  0.17324230    -0.03400
C1154       C  0.87036867  0.10402052  0.17824290    -0.39900
H1155       H  0.96052888  0.14209877  0.12557714     0.12800
H1156       H  0.98271084  0.10909139  0.08748321     0.12500
H1157       H  0.90144644  0.01014413  0.13455388     0.11900
H1158       H  0.87825598  0.04289566  0.17110861     0.12100
H1159       H  0.95603623  0.01384850  0.09916106     0.14900
H1160       H  0.96575546  0.06738762  0.03443430     0.13700
H1161       H  0.92317762  0.14043281  0.18577257     0.11300
H1162       H  0.85153487  0.08027683  0.16338252     0.13300
C1163       C  0.91272710  0.10448284  0.37269749     0.19400
C1164       C  0.93067826  0.11636672  0.40790722    -0.18700
C1165       C  0.94772492  0.09917344  0.42427798    -0.10900
C1166       C  0.94759437  0.07014697  0.40524075     0.21700
C1167       C  0.93065719  0.05905162  0.36937301    -0.20300
C1168       C  0.91315702  0.07587111  0.35332695    -0.11100
C1169       C  0.96542942  0.05147868  0.42198602    -0.15300
C1170       C  0.96625542  0.04654193  0.46077033    -0.29100
C1171       C  0.89552593  0.12353827  0.35518906    -0.03400
C1172       C  0.86587165  0.10621441  0.33533031    -0.39900
H1173       H  0.93129415  0.13881481  0.42285638     0.12800
H1174       H  0.96147900  0.10898563  0.45147323     0.12500
H1175       H  0.93064489  0.03707511  0.35399861     0.11900
H1176       H  0.90056508  0.06694099  0.32536951     0.12100
H1177       H  0.97630585  0.03977509  0.40213440     0.14900
H1178       H  0.95069232  0.05412712  0.47845030     0.13700
H1179       H  0.90816973  0.15234960  0.35747689     0.11300
H1180       H  0.85284921  0.07731136  0.33437751     0.13300
C1181       C  0.93587863  0.35894064  0.06190102     0.19400
C1182       C  0.94821386  0.33508494  0.07049106    -0.18700
C1183       C  0.92993255  0.30640428  0.09650778    -0.10900
C1184       C  0.89873120  0.30098769  0.11402019     0.21700
C1185       C  0.88523653  0.32329078  0.10285489    -0.20300
C1186       C  0.90350400  0.35184539  0.07715784    -0.11100
C1187       C  0.87969044  0.27329362  0.14462728    -0.15300
C1188       C  0.89382273  0.25711359  0.16578252    -0.29100
C1189       C  0.95692879  0.39164940  0.03787827    -0.03400
C1190       C  0.95526439  0.42158882  0.04518335    -0.39900
H1191       H  0.97251348  0.33929309  0.05811539     0.12800
H1192       H  0.94055083  0.28891867  0.10288769     0.12500
H1193       H  0.86091771  0.31930903  0.11500645     0.11900
H1194       H  0.89247039  0.36878121  0.06972958     0.12100
H1195       H  0.85334033  0.26726460  0.15149439     0.14900
H1196       H  0.91998547  0.26233125  0.15987186     0.13700
H1197       H  0.97386327  0.39130718  0.01499397     0.11300
H1198       H  0.94454026  0.42169633  0.07358380     0.13300
C1199       C  0.68045776  0.08250162  0.36603408     0.19400
C1200       C  0.67779349  0.07185245  0.40542599    -0.18700
C1201       C  0.64637125  0.05883599  0.42583571    -0.10900
C1202       C  0.61668321  0.05562151  0.40688941     0.21700
C1203       C  0.61917842  0.06478546  0.36695775    -0.20300
C1204       C  0.65064099  0.07826997  0.34681982    -0.11100
C1205       C  0.58268646  0.04316437  0.42697731    -0.15300
C1206       C  0.57643584  0.03488796  0.46532359    -0.29100
C1207       C  0.71418642  0.09670246  0.34511075    -0.03400
C1208       C  0.72353249  0.12127002  0.31621520    -0.39900
H1209       H  0.70027471  0.07422547  0.42064964     0.12800
H1210       H  0.64589575  0.05158281  0.45628181     0.12500
H1211       H  0.59667896  0.06167412  0.35117695     0.11900
H1212       H  0.65140792  0.08484728  0.31600539     0.12100
H1213       H  0.56127008  0.04041398  0.40909084     0.14900
H1214       H  0.59628406  0.03449880  0.48323486     0.13700
H1215       H  0.73192714  0.08725029  0.35417055     0.11300
H1216       H  0.70685453  0.13251072  0.30892452     0.13300
C1217       C  0.92399282  0.36700548  0.42679447     0.19400
C1218       C  0.89036129  0.33798336  0.42796941    -0.18700
C1219       C  0.88068012  0.30933956  0.40249232    -0.10900
C1220       C  0.90462289  0.30903070  0.37529845     0.21700
C1221       C  0.93848950  0.33753572  0.37502133    -0.20300
C1222       C  0.94807982  0.36616656  0.40028935    -0.11100
C1223       C  0.89559674  0.27962832  0.34695303    -0.15300
C1224       C  0.86310282  0.25796631  0.33515465    -0.29100
C1225       C  0.93379378  0.39653553  0.45513529    -0.03400
C1226       C  0.96143716  0.42897597  0.44954699    -0.39900
H1227       H  0.87152022  0.33744170  0.44870714     0.12800
H1228       H  0.85463366  0.28735771  0.40476501     0.12500
H1229       H  0.95763066  0.33780686  0.35492288     0.11900
H1230       H  0.97460570  0.38720606  0.39926771     0.12100
H1231       H  0.91665948  0.27716887  0.33351719     0.14900
H1232       H  0.84191312  0.26118803  0.34674143     0.13700
H1233       H  0.91755562  0.39108306  0.48078740     0.11300
H1234       H  0.97364972  0.43499369  0.42091197     0.13300
C1235       C  0.63144810  0.07245938  0.07237366     0.19400
C1236       C  0.65644132  0.10826694  0.07630981    -0.18700
C1237       C  0.68459233  0.11784477  0.10120953    -0.10900
C1238       C  0.68855557  0.09153269  0.12211720     0.21700
C1239       C  0.66404856  0.05567253  0.11713408    -0.20300
C1240       C  0.63596094  0.04618121  0.09239034    -0.11100
C1241       C  0.71624657  0.10021704  0.15135628    -0.15300
C1242       C  0.74506255  0.13195105  0.15330881    -0.29100
C1243       C  0.60127536  0.06298752  0.04670814    -0.03400
C1244       C  0.57075294  0.03355113  0.05319894    -0.39900
H1245       H  0.65364518  0.12894519  0.06091770     0.12800
H1246       H  0.70236596  0.14585473  0.10476410     0.12500
H1247       H  0.66649326  0.03486646  0.13270139     0.11900
H1248       H  0.61789547  0.01820312  0.08895622     0.12100
H1249       H  0.71222194  0.07970659  0.17290384     0.14900
H1250       H  0.75036399  0.15266100  0.13167670     0.13700
H1251       H  0.60442889  0.08051796  0.02232590     0.11300
H1252       H  0.56756600  0.01945429  0.08072543     0.13300
C1253       C  0.59203507  0.39779947  0.12253970     0.19400
C1254       C  0.55705558  0.38838941  0.12072640    -0.18700
C1255       C  0.54626956  0.40809222  0.09757887    -0.10900
C1256       C  0.57019637  0.43729421  0.07482241     0.21700
C1257       C  0.60514718  0.44577470  0.07544362    -0.20300
C1258       C  0.61608888  0.42648180  0.09941227    -0.11100
C1259       C  0.55940874  0.45860958  0.04941319    -0.15300
C1260       C  0.52856676  0.45768798  0.05328214    -0.29100
C1261       C  0.60259774  0.37768903  0.14959419    -0.03400
C1262       C  0.63072160  0.39422721  0.17199447    -0.39900
H1263       H  0.53807428  0.36624957  0.13813342     0.12800
H1264       H  0.51909116  0.40002288  0.09774415     0.12500
H1265       H  0.62409757  0.46768306  0.05776559     0.11900
H1266       H  0.64323674  0.43383450  0.09972114     0.12100
H1267       H  0.57750536  0.47586311  0.02712423     0.14900
H1268       H  0.51265305  0.44412840  0.07856092     0.13700
H1269       H  0.58491280  0.34951930  0.15444680     0.11300
H1270       H  0.64684485  0.42292877  0.16945739     0.13300
C1271       C  0.80843976  0.41013707  0.11666740     0.19400
C1272       C  0.82379509  0.39352919  0.09554932    -0.18700
C1273       C  0.84978214  0.41265044  0.06791204    -0.10900
C1274       C  0.86180295  0.44922902  0.06121333     0.21700
C1275       C  0.84519822  0.46555488  0.08038665    -0.20300
C1276       C  0.81896403  0.44635181  0.10815037    -0.11100
C1277       C  0.89407799  0.47058515  0.03778715    -0.15300
C1278       C  0.92103392  0.46476376  0.04403267    -0.29100
C1279       C  0.78314729  0.38930494  0.14856378    -0.03400
C1280       C  0.76043704  0.39849193  0.16337958    -0.39900
H1281       H  0.81616062  0.36575981  0.10102838     0.12800
H1282       H  0.86148295  0.39913102  0.05261370     0.12500
H1283       H  0.85391948  0.49364920  0.07566560     0.11900
H1284       H  0.80837756  0.46058703  0.12403028     0.12100
H1285       H  0.89570211  0.49026469  0.01640899     0.14900
H1286       H  0.91824526  0.44925944  0.07011162     0.13700
H1287       H  0.78311969  0.36555168  0.16000505     0.11300
H1288       H  0.75924486  0.42127245  0.15106952     0.13300
C1289       C  0.55610998  0.43795391  0.40821351     0.19400
C1290       C  0.58468348  0.45475230  0.38295440    -0.18700
C1291       C  0.59815435  0.43510144  0.36470570    -0.10900
C1292       C  0.58264376  0.39804607  0.37059190     0.21700
C1293       C  0.55373845  0.38110528  0.39553864    -0.20300
C1294       C  0.54091704  0.40100974  0.41484687    -0.11100
C1295       C  0.59469142  0.37675101  0.34804903    -0.15300
C1296       C  0.62845925  0.38843410  0.34110064    -0.29100
C1297       C  0.54169300  0.45936932  0.42565650    -0.03400
C1298       C  0.53214117  0.45610657  0.46341192    -0.39900
H1299       H  0.59654896  0.48314933  0.37727711     0.12800
H1300       H  0.61990940  0.44870635  0.34480200     0.12500
H1301       H  0.54107284  0.35250159  0.39996032     0.11900
H1302       H  0.51846429  0.38741027  0.43380668     0.12100
H1303       H  0.57539205  0.35178763  0.33568368     0.14900
H1304       H  0.64768694  0.41213760  0.35566305     0.13700
H1305       H  0.53988619  0.47905422  0.40716034     0.11300
H1306       H  0.53241812  0.43483422  0.48038464     0.13300
C1307       C  0.80994673  0.41213084  0.38021975     0.19400
C1308       C  0.83520611  0.44795443  0.38364955    -0.18700
C1309       C  0.86259449  0.45790822  0.40965447    -0.10900
C1310       C  0.86546315  0.43214432  0.43284788     0.21700
C1311       C  0.83932717  0.39659115  0.43097488    -0.20300
C1312       C  0.81184161  0.38657634  0.40490293    -0.11100
C1313       C  0.89498582  0.44193623  0.45980316    -0.15300
C1314       C  0.92612635  0.47029856  0.45267065    -0.29100
C1315       C  0.78233844  0.40285950  0.35055349    -0.03400
C1316       C  0.76325538  0.36994350  0.33619358    -0.39900
H1317       H  0.83403570  0.46832648  0.36571812     0.12800
H1318       H  0.88132271  0.48586037  0.41170772     0.12500
H1319       H  0.84045907  0.37644313  0.44932328     0.11900
H1320       H  0.79220783  0.35889011  0.40446702     0.12100
H1321       H  0.89104008  0.42510354  0.48524508     0.14900
H1322       H  0.93007223  0.48255496  0.42397753     0.13700
H1323       H  0.77886487  0.42446052  0.33850578     0.11300
H1324       H  0.76683086  0.34804148  0.34676732     0.13300
C1325       C  0.55549196  0.11721488  0.10506068     0.19400
C1326       C  0.54185761  0.11799982  0.14191175    -0.18700
C1327       C  0.55378057  0.15008623  0.16184556    -0.10900
C1328       C  0.58034237  0.18198774  0.14593519     0.21700
C1329       C  0.59396999  0.18125621  0.10882497    -0.20300
C1330       C  0.58162663  0.14917133  0.08859293    -0.11100
C1331       C  0.59320453  0.21502559  0.16941775    -0.15300
C1332       C  0.62515530  0.24325465  0.16566886    -0.29100
C1333       C  0.54233711  0.08266237  0.08476514    -0.03400
C1334       C  0.53876958  0.07985199  0.04566929    -0.39900
H1335       H  0.52162492  0.09375040  0.15511225     0.12800
H1336       H  0.54265412  0.14984903  0.19023112     0.12500
H1337       H  0.61394848  0.20531892  0.09517648     0.11900
H1338       H  0.59295776  0.14928958  0.06038997     0.12100
H1339       H  0.57669886  0.21471938  0.19325299     0.14900
H1340       H  0.64300078  0.24341039  0.14369213     0.13700
H1341       H  0.53307034  0.05853821  0.10248610     0.11300
H1342       H  0.54366801  0.10344859  0.02905479     0.13300
C1343       C  0.58627813  0.13465652  0.42845215     0.19400
C1344       C  0.60178712  0.17088844  0.43774352    -0.18700
C1345       C  0.61561145  0.19705460  0.40805732    -0.10900
C1346       C  0.61506542  0.18737483  0.36863198     0.21700
C1347       C  0.60081598  0.15121783  0.35968545    -0.19900
C1348       C  0.58608313  0.12515501  0.38910732    -0.11100
C1349       C  0.62922166  0.21429611  0.33628733    -0.15300
C1350       C  0.62553200  0.24361145  0.33588644    -0.29100
C1351       C  0.57052071  0.10692325  0.45984836    -0.03400
C1352       C  0.53970974  0.07765629  0.45449418    -0.39900
H1353       H  0.60251114  0.17888994  0.46786905     0.12800
H1354       H  0.62708907  0.22480084  0.41599161     0.12500
H1355       H  0.60031213  0.14305833  0.32965749     0.11900
H1356       H  0.57455961  0.09752083  0.38098389     0.12100
H1357       H  0.64043740  0.20847917  0.31088696     0.14900
H1358       H  0.61170650  0.24785268  0.35980624     0.13700
H1359       H  0.58438896  0.11121340  0.48687556     0.11300
H1360       H  0.52830048  0.07559022  0.42613216     0.13300
O1361       O  0.66960336  0.29303507  0.69662307    -0.84600
O1362       O  0.73234360  0.35185473  0.71227513    -0.81700
C1363       C  0.73453726  0.37926805  0.69491281     0.98800
O1364       O  0.71631695  0.39276320  0.70567192    -0.81700
O1365       O  0.65830957  0.39337374  0.72780654    -0.84300
C1366       C  0.63668440  0.37387919  0.70249915     1.03400
O1367       O  0.62322888  0.34031596  0.70459131    -0.77100
O1368       O  0.61818712  0.27405905  0.72194131    -0.77300
C1369       C  0.63775371  0.27141953  0.69665834     1.03300
O1370       O  0.65953300  0.27233319  0.77955599    -0.84600
O1371       O  0.71955523  0.33223024  0.79490943    -0.81700
C1372       C  0.73786214  0.36436382  0.80363644     0.98900
O1373       O  0.73444540  0.38850546  0.78586880    -0.81700
O1374       O  0.67273126  0.38362397  0.80844601    -0.84300
C1375       C  0.64102337  0.37376858  0.81112896     1.03300
O1376       O  0.62019134  0.35214659  0.78667467    -0.77100
O1377       O  0.62509941  0.29163308  0.80291362    -0.77300
C1378       C  0.63801023  0.27109725  0.80530405     1.03300
Cr1379     Cr  0.69355550  0.31433990  0.74611961     1.93700
Cr1380     Cr  0.69370740  0.38576929  0.75677341     1.93200
Cr1381     Cr  0.62519270  0.31625025  0.75377164     1.39100
O1382       O  0.67107506  0.33884272  0.75215557    -1.22400
C1383       C  0.53769146  0.02051191  0.52844773    -0.01800
C1384       C  0.97733303  0.45957233  0.97854385    -0.01800
C1385       C  0.54076103  0.02015899  0.98199259    -0.01800
C1386       C  0.51822688  0.47954736  0.98263128    -0.01800
C1387       C  0.51422370  0.47725503  0.52657450    -0.01800
C1388       C  0.97427400  0.45800189  0.52308742    -0.01800
C1389       C  0.95671103  0.48226972  0.52350862    -0.01800
C1390       C  0.52266995  0.04407346  0.98017502    -0.01800
C1391       C  0.98134000  0.02499126  0.97872512    -0.01800
C1392       C  0.95876425  0.48254897  0.97765357    -0.01800
C1393       C  0.98228198  0.02458888  0.52486917    -0.01800
C1394       C  0.51988932  0.04385288  0.52576877    -0.01800
O1395       O  0.76398531  0.15992080  0.76676414    -0.84600
O1396       O  0.82433528  0.21446089  0.79358124    -0.81700
C1397       C  0.85527999  0.23098256  0.80432816     0.98800
O1398       O  0.87820628  0.22584086  0.78770132    -0.81700
O1399       O  0.86532426  0.15785522  0.80860141    -0.84300
C1400       C  0.85143609  0.12436498  0.80936822     1.03400
O1401       O  0.82918332  0.10607929  0.78417280    -0.77100
O1402       O  0.77368687  0.11870927  0.79314762    -0.77300
C1403       C  0.75589769  0.13445929  0.79101239     1.03300
O1404       O  0.79362683  0.17467828  0.68881067    -0.84600
O1405       O  0.85173080  0.23287371  0.71448195    -0.81700
C1406       C  0.87643225  0.23154257  0.69699977     0.98900
O1407       O  0.88559512  0.20920666  0.70733292    -0.81700
O1408       O  0.87758343  0.14467161  0.72918456    -0.84300
C1409       C  0.85818922  0.12282757  0.70375448     1.03300
O1410       O  0.82662430  0.11432274  0.70177972    -0.77100
O1411       O  0.76667283  0.11943264  0.70973407    -0.77300
C1412       C  0.77009535  0.14311458  0.68494654     1.03300
Cr1413     Cr  0.80996939  0.19338451  0.74154670     1.93700
Cr1414     Cr  0.87312676  0.18313906  0.75768587     1.93200
Cr1415     Cr  0.80112617  0.11828018  0.74739006     1.39100
O1416       O  0.82818431  0.16501767  0.74897575    -1.22400
C1417       C  0.91880519  0.09603123  0.65076837     0.19400
C1418       C  0.94883522  0.11466838  0.62785794    -0.18700
C1419       C  0.96166312  0.09619680  0.60585135    -0.10900
C1420       C  0.94527118  0.05882444  0.60758799     0.21700
C1421       C  0.91587960  0.04024315  0.63139283    -0.20300
C1422       C  0.90243815  0.05863055  0.65242370    -0.11100
C1423       C  0.95876045  0.03863064  0.58555917    -0.15300
C1424       C  0.96772498  0.04531867  0.54752136    -0.29100
C1425       C  0.90571643  0.11593557  0.67417887    -0.03400
C1426       C  0.87174628  0.10507412  0.67782092    -0.39900
H1427       H  0.96210388  0.14350082  0.62666569     0.12800
H1428       H  0.98477093  0.11109913  0.58817494     0.12500
H1429       H  0.90309095  0.01143331  0.63331193     0.11900
H1430       H  0.87971610  0.04367423  0.67064133     0.12100
H1431       H  0.95951415  0.01656490  0.60045355     0.14900
H1432       H  0.96890395  0.06908653  0.53479936     0.13700
H1433       H  0.92446030  0.14037658  0.68802792     0.11300
H1434       H  0.85320817  0.08206415  0.66166870     0.13300
C1435       C  0.91021966  0.10380516  0.87398749     0.19400
C1436       C  0.92908590  0.11607126  0.90860430    -0.18700
C1437       C  0.94674948  0.09919306  0.92418962    -0.10900
C1438       C  0.94634815  0.07011939  0.90494527     0.21700
C1439       C  0.92859079  0.05873195  0.86958208    -0.20300
C1440       C  0.91043201  0.07517781  0.85437607    -0.11100
C1441       C  0.96436644  0.05143941  0.92130731    -0.15300
C1442       C  0.96449132  0.04560870  0.96001034    -0.29100
C1443       C  0.89281891  0.12285710  0.85689469    -0.03400
C1444       C  0.86353844  0.10576049  0.83630668    -0.39900
H1445       H  0.92998628  0.13860202  0.92367586     0.12800
H1446       H  0.96110365  0.10917835  0.95100783     0.12500
H1447       H  0.92835744  0.03673638  0.85402122     0.11900
H1448       H  0.89724873  0.06599077  0.82676731     0.12100
H1449       H  0.97572171  0.04037533  0.90126185     0.14900
H1450       H  0.94844587  0.05266338  0.97757512     0.13700
H1451       H  0.90547951  0.15165919  0.85936110     0.11300
H1452       H  0.85041934  0.07686562  0.83512569     0.13300
C1453       C  0.93775555  0.35856167  0.55891654     0.19400
C1454       C  0.95297988  0.33844151  0.57240562    -0.18700
C1455       C  0.93577607  0.31096715  0.60011496    -0.10900
C1456       C  0.90248632  0.30255729  0.61399077     0.21700
C1457       C  0.88618390  0.32055285  0.59740205    -0.20300
C1458       C  0.90340191  0.34792120  0.56999873    -0.11100
C1459       C  0.88403305  0.27657238  0.64647919    -0.15300
C1460       C  0.89570731  0.25653673  0.66461313    -0.29100
C1461       C  0.95853687  0.39217013  0.53609733    -0.03400
C1462       C  0.95368208  0.42054925  0.54194231    -0.39900
H1463       H  0.97882540  0.34504808  0.56297747     0.12800
H1464       H  0.94927978  0.29745718  0.61116744     0.12500
H1465       H  0.86028992  0.31414873  0.60652256     0.11900
H1466       H  0.89008748  0.36146312  0.55833466     0.12100
H1467       H  0.85949424  0.27403813  0.65627542     0.14900
H1468       H  0.91942276  0.25722886  0.65507791     0.13700
H1469       H  0.97878931  0.39425776  0.51639589     0.11300
H1470       H  0.93575490  0.41699727  0.56509389     0.13300
C1471       C  0.68199329  0.08498122  0.86610135     0.19400
C1472       C  0.68030490  0.07881809  0.90668615    -0.18700
C1473       C  0.64885182  0.06600151  0.92707971    -0.10900
C1474       C  0.61821350  0.05815881  0.90692150     0.21700
C1475       C  0.61999940  0.06366579  0.86618782    -0.20300
C1476       C  0.65143151  0.07694223  0.84601157    -0.11100
C1477       C  0.58400261  0.04509646  0.92667650    -0.15300
C1478       C  0.57705685  0.03449493  0.96437728    -0.29100
C1479       C  0.71557146  0.09894575  0.84491851    -0.03400
C1480       C  0.72392932  0.12200686  0.81457126    -0.39900
H1481       H  0.70352176  0.08466166  0.92274912     0.12800
H1482       H  0.64900816  0.06281658  0.95848846     0.12500
H1483       H  0.59690355  0.05767860  0.84979963     0.11900
H1484       H  0.65169359  0.08045533  0.81453685     0.12100
H1485       H  0.56286585  0.04316132  0.90886675     0.14900
H1486       H  0.59627266  0.03178496  0.98132364     0.13700
H1487       H  0.73403536  0.09083446  0.85507525     0.11300
H1488       H  0.70651253  0.13211281  0.80636487     0.13300
C1489       C  0.92460585  0.36594942  0.92812108     0.19400
C1490       C  0.89087820  0.33716428  0.92865754    -0.18700
C1491       C  0.88131307  0.30878383  0.90284142    -0.10900
C1492       C  0.90545374  0.30855733  0.87584037     0.21700
C1493       C  0.93945262  0.33675398  0.87633714    -0.20300
C1494       C  0.94895219  0.36504544  0.90203415    -0.11100
C1495       C  0.89651939  0.27972984  0.84673445    -0.15300
C1496       C  0.86396140  0.25734829  0.83574177    -0.29100
C1497       C  0.93414719  0.39555679  0.95629959    -0.03400
C1498       C  0.96212620  0.42768598  0.95081535    -0.39900
H1499       H  0.87181835  0.33669296  0.94902494     0.12800
H1500       H  0.85512780  0.28704943  0.90464753     0.12500
H1501       H  0.95877898  0.33709874  0.85645689     0.11900
H1502       H  0.97555737  0.38586182  0.90148588     0.12100
H1503       H  0.91766862  0.27827827  0.83207430     0.14900
H1504       H  0.84250663  0.25940069  0.84848832     0.13700
H1505       H  0.91766635  0.39058969  0.98168895     0.11300
H1506       H  0.97450737  0.43345976  0.92229175     0.13300
C1507       C  0.63004031  0.07511270  0.57428419     0.19400
C1508       C  0.65441546  0.11110925  0.57874366    -0.18700
C1509       C  0.68275094  0.12098992  0.60350499    -0.10900
C1510       C  0.68739595  0.09479780  0.62371796     0.21700
C1511       C  0.66333532  0.05886001  0.61849784    -0.20300
C1512       C  0.63516974  0.04907649  0.59389299    -0.11100
C1513       C  0.71554518  0.10350375  0.65224993    -0.15300
C1514       C  0.74495131  0.13477407  0.65312023    -0.29100
C1515       C  0.59996070  0.06502998  0.54830763    -0.03400
C1516       C  0.56983402  0.03502630  0.55446735    -0.39900
H1517       H  0.65108330  0.13162123  0.56372638     0.12800
H1518       H  0.70025620  0.14903620  0.60743152     0.12500
H1519       H  0.66631815  0.03816611  0.63360133     0.11900
H1520       H  0.61758203  0.02103804  0.59014213     0.12100
H1521       H  0.71161405  0.08306926  0.67387837     0.14900
H1522       H  0.75003658  0.15544204  0.63146164     0.13700
H1523       H  0.60293035  0.08236999  0.52383927     0.11300
H1524       H  0.56672380  0.02100788  0.58202972     0.13300
C1525       C  0.58854502  0.39446300  0.62130388     0.19400
C1526       C  0.55348157  0.38450435  0.61788339    -0.18700
C1527       C  0.54305751  0.40424104  0.59415585    -0.10900
C1528       C  0.56749582  0.43410803  0.57263994     0.21700
C1529       C  0.60245333  0.44288080  0.57448159    -0.20300
C1530       C  0.61297415  0.42348510  0.59882535    -0.11100
C1531       C  0.55730432  0.45599648  0.54741778    -0.15300
C1532       C  0.52691086  0.45594256  0.55169954    -0.29100
C1533       C  0.59891526  0.37475329  0.64935655    -0.03400
C1534       C  0.62740569  0.39161623  0.67121867    -0.39900
H1535       H  0.53415609  0.36199303  0.63453726     0.12800
H1536       H  0.51581745  0.39585776  0.59292353     0.12500
H1537       H  0.62175894  0.46520354  0.55759602     0.11900
H1538       H  0.64017550  0.43118254  0.60003811     0.12100
H1539       H  0.57553646  0.47308860  0.52515286     0.14900
H1540       H  0.51108221  0.44250990  0.57710403     0.13700
H1541       H  0.58112145  0.34673938  0.65501766     0.11300
H1542       H  0.64365671  0.42022722  0.66782631     0.13300
C1543       C  0.80881158  0.41004592  0.61806085     0.19400
C1544       C  0.82591993  0.39404310  0.59925523    -0.18700
C1545       C  0.85237361  0.41322680  0.57217405    -0.10900
C1546       C  0.86284249  0.44917362  0.56348703     0.21700
C1547       C  0.84486328  0.46495320  0.58068404    -0.20300
C1548       C  0.81827811  0.44573234  0.60803088    -0.11100
C1549       C  0.89436307  0.47039188  0.53908753    -0.15300
C1550       C  0.92236366  0.46664428  0.54614824    -0.29100
C1551       C  0.78287612  0.38925637  0.64936251    -0.03400
C1552       C  0.75897930  0.39762091  0.66214864    -0.39900
H1553       H  0.81922464  0.36672127  0.60607186     0.12800
H1554       H  0.86542095  0.40023230  0.55862770     0.12500
H1555       H  0.85257558  0.49263901  0.57454312     0.11900
H1556       H  0.80642627  0.45955339  0.62229327     0.12100
H1557       H  0.89431438  0.48774036  0.51574731     0.14900
H1558       H  0.92225112  0.45537097  0.57468712     0.13700
H1559       H  0.78350382  0.36631079  0.66226167     0.11300
H1560       H  0.75718587  0.41960314  0.64851605     0.13300
C1561       C  0.55739823  0.43998793  0.90888805     0.19400
C1562       C  0.58504692  0.45681811  0.88239854    -0.18700
C1563       C  0.59857672  0.43736641  0.86380760    -0.10900
C1564       C  0.58389298  0.40048959  0.87055377     0.21700
C1565       C  0.55601108  0.38357130  0.89682269    -0.20300
C1566       C  0.54321413  0.40328874  0.91645922    -0.11100
C1567       C  0.59552880  0.37914740  0.84761138    -0.15300
C1568       C  0.62916056  0.39058078  0.84034421    -0.29100
C1569       C  0.54266598  0.46092985  0.92664704    -0.03400
C1570       C  0.53411106  0.45806249  0.96470723    -0.39900
H1571       H  0.59609633  0.48502847  0.87601262     0.12800
H1572       H  0.61960586  0.45087571  0.84297116     0.12500
H1573       H  0.54406437  0.35509284  0.90195497     0.11900
H1574       H  0.52146676  0.38967375  0.93637132     0.12100
H1575       H  0.57599460  0.35417108  0.83550159     0.14900
H1576       H  0.64860914  0.41438841  0.85456512     0.13700
H1577       H  0.53940727  0.47966669  0.90800360     0.11300
H1578       H  0.53598141  0.43777628  0.98189948     0.13300
C1579       C  0.81086731  0.41466202  0.87821599     0.19400
C1580       C  0.83773116  0.44986021  0.88050442    -0.18700
C1581       C  0.86490139  0.45887569  0.90664732    -0.10900
C1582       C  0.86593128  0.43275041  0.93110737     0.21700
C1583       C  0.83818498  0.39796138  0.93038154    -0.20300
C1584       C  0.81090356  0.38892502  0.90424995    -0.11100
C1585       C  0.89504514  0.44149874  0.95844404    -0.15300
C1586       C  0.92682782  0.46885125  0.95134584    -0.29100
C1587       C  0.78351083  0.40598297  0.84832746    -0.03400
C1588       C  0.76391609  0.37295491  0.83455855    -0.39900
H1589       H  0.83799564  0.47041828  0.86156345     0.12800
H1590       H  0.88487981  0.48639999  0.90779624     0.12500
H1591       H  0.83784698  0.37761894  0.94971797     0.11900
H1592       H  0.78993745  0.36182992  0.90481217     0.12100
H1593       H  0.89017895  0.42470904  0.98411747     0.14900
H1594       H  0.93166101  0.48059362  0.92231305     0.13700
H1595       H  0.78065801  0.42779942  0.83576583     0.11300
H1596       H  0.76724980  0.35103470  0.84563420     0.13300
C1597       C  0.55308773  0.11673124  0.60606423     0.19400
C1598       C  0.54014472  0.11684295  0.64356666    -0.18700
C1599       C  0.55258776  0.14849908  0.66444980    -0.10900
C1600       C  0.57897855  0.18062420  0.64879507     0.21700
C1601       C  0.59192374  0.18056487  0.61106639    -0.20300
C1602       C  0.57908870  0.14892475  0.58992519    -0.11100
C1603       C  0.59220115  0.21332081  0.67290407    -0.15300
C1604       C  0.62401918  0.24165224  0.66866319    -0.29100
C1605       C  0.53958454  0.08249424  0.58506027    -0.03400
C1606       C  0.53707269  0.08009528  0.54582994    -0.39900
H1607       H  0.52006718  0.09238715  0.65658145     0.12800
H1608       H  0.54196990  0.14775431  0.69329326     0.12500
H1609       H  0.61172544  0.20483830  0.59759651     0.11900
H1610       H  0.59001253  0.14960602  0.56130184     0.12100
H1611       H  0.57597384  0.21288588  0.69712037     0.14900
H1612       H  0.64161423  0.24183135  0.64634100     0.13700
H1613       H  0.52953541  0.05809623  0.60244673     0.11300
H1614       H  0.54320879  0.10389611  0.52893633     0.13300
C1615       C  0.58810760  0.13600269  0.93021416     0.19400
C1616       C  0.60365851  0.17209168  0.94033727    -0.18700
C1617       C  0.61814281  0.19885311  0.91127258    -0.10900
C1618       C  0.61830880  0.18989269  0.87171872     0.21700
C1619       C  0.60411619  0.15392488  0.86197270    -0.19900
C1620       C  0.58864425  0.12728691  0.89069754    -0.11100
C1621       C  0.63284889  0.21733331  0.83994967    -0.15300
C1622       C  0.62672578  0.24512244  0.83834871    -0.29100
C1623       C  0.57190595  0.10759749  0.96095234    -0.03400
C1624       C  0.54107806  0.07840300  0.95496397    -0.39900
H1625       H  0.60390590  0.17952636  0.97061471     0.12800
H1626       H  0.62949279  0.22646683  0.91970417     0.12500
H1627       H  0.60417324  0.14635969  0.83180076     0.11900
H1628       H  0.57728668  0.09984077  0.88187122     0.12100
H1629       H  0.64599607  0.21273908  0.81555660     0.14900
H1630       H  0.61124211  0.24803394  0.86133689     0.13700
H1631       H  0.58565038  0.11125802  0.98799558     0.11300
H1632       H  0.53000211  0.07693356  0.92652278     0.13300
O1633       O  0.67039200  0.79432216  0.19627299    -0.84600
O1634       O  0.73403175  0.85189968  0.21231120    -0.81700
C1635       C  0.73717257  0.88020494  0.19622704     0.98800
O1636       O  0.71965852  0.89417910  0.20799881    -0.81700
O1637       O  0.66179378  0.89519630  0.22981029    -0.84300
C1638       C  0.63946615  0.87601455  0.20491348     1.03400
O1639       O  0.62554135  0.84239637  0.20657676    -0.77100
O1640       O  0.61937077  0.77533078  0.22255365    -0.77300
C1641       C  0.63853148  0.77269613  0.19671056     1.03300
O1642       O  0.66039951  0.77227767  0.27888814    -0.84600
O1643       O  0.72138061  0.83109720  0.29475354    -0.81700
C1644       C  0.73959972  0.86291777  0.30480331     0.98900
O1645       O  0.73639106  0.88767400  0.28819413    -0.81700
O1646       O  0.67526853  0.88428095  0.31045491    -0.84300
C1647       C  0.64366447  0.87494714  0.31293339     1.03300
O1648       O  0.62277893  0.85347471  0.28845480    -0.77100
O1649       O  0.62715800  0.79246975  0.30367533    -0.77300
C1650       C  0.63933743  0.77127343  0.30512560     1.03300
Cr1651     Cr  0.69489858  0.81446064  0.24593441     1.93700
Cr1652     Cr  0.69647067  0.88647305  0.25884239     1.93200
Cr1653     Cr  0.62729429  0.81759967  0.25505324     1.39100
O1654       O  0.67319236  0.83963209  0.25321852    -1.22400
C1655       C  0.53762101  0.52004845  0.02884027    -0.01800
C1656       C  0.97932353  0.96140733  0.47733124    -0.01800
C1657       C  0.54005797  0.51960655  0.48204644    -0.01800
C1658       C  0.51823169  0.97914024  0.48318393    -0.01800
C1659       C  0.51564926  0.97807061  0.02717761    -0.01800
C1660       C  0.97591439  0.95885279  0.02337426    -0.01800
C1661       C  0.95730702  0.98211677  0.02255160    -0.01800
C1662       C  0.52228500  0.54379270  0.47982225    -0.01800
C1663       C  0.98069349  0.52520463  0.47971411    -0.01800
C1664       C  0.96078756  0.98447920  0.47799963    -0.01800
C1665       C  0.97913061  0.52276143  0.02461797    -0.01800
C1666       C  0.52006039  0.54370453  0.02672432    -0.01800
O1667       O  0.76343073  0.66053413  0.26772180    -0.84600
O1668       O  0.82421540  0.71524660  0.29355999    -0.81700
C1669       C  0.85540380  0.73194621  0.30347216     0.98800
O1670       O  0.87788244  0.72601211  0.28693822    -0.81700
O1671       O  0.86485355  0.65797043  0.30854265    -0.84300
C1672       C  0.85049672  0.62443948  0.30979604     1.03400
O1673       O  0.82791376  0.60607841  0.28498181    -0.77100
O1674       O  0.77336557  0.61965024  0.29447032    -0.77300
C1675       C  0.75594100  0.63577167  0.29274513     1.03300
O1676       O  0.79264692  0.67432695  0.18931358    -0.84600
O1677       O  0.85088244  0.73260287  0.21467949    -0.81700
C1678       C  0.87522763  0.73095219  0.19682186     0.98900
O1679       O  0.88405467  0.70826052  0.20667469    -0.81700
O1680       O  0.87591129  0.64382321  0.22902750    -0.84300
C1681       C  0.85599654  0.62165189  0.20415549     1.03300
O1682       O  0.82449607  0.61337142  0.20267773    -0.77100
O1683       O  0.76533576  0.61926841  0.21079320    -0.77300
C1684       C  0.76954949  0.64258989  0.18515163     1.03300
Cr1685     Cr  0.80921679  0.69349539  0.24190651     1.93700
Cr1686     Cr  0.87217118  0.68279764  0.25736461     1.93200
Cr1687     Cr  0.79983172  0.61824601  0.24840698     1.39100
O1688       O  0.82720383  0.66493898  0.24938416    -1.22400
C1689       C  0.91538012  0.59451504  0.14909198     0.19400
C1690       C  0.94489373  0.61267728  0.12530179    -0.18700
C1691       C  0.95764286  0.59380772  0.10393889    -0.10900
C1692       C  0.94149988  0.55647783  0.10685763     0.21700
C1693       C  0.91279326  0.53842227  0.13174643    -0.20300
C1694       C  0.89948437  0.55718452  0.15227935    -0.11100
C1695       C  0.95442118  0.53583997  0.08468401    -0.15300
C1696       C  0.96414040  0.54311413  0.04690337    -0.29100
C1697       C  0.90265284  0.61498873  0.17206555    -0.03400
C1698       C  0.86879383  0.60314640  0.17838833    -0.39900
H1699       H  0.95788925  0.64146552  0.12300872     0.12800
H1700       H  0.98046263  0.60842798  0.08574950     0.12500
H1701       H  0.90041458  0.50971573  0.13490676     0.11900
H1702       H  0.87729082  0.54257310  0.17133669     0.12100
H1703       H  0.95417180  0.51304153  0.09909778     0.14900
H1704       H  0.96583337  0.56714101  0.03426411     0.13700
H1705       H  0.92154061  0.64066526  0.18341213     0.11300
H1706       H  0.84977638  0.57888048  0.16450871     0.13300
C1707       C  0.90857309  0.60282693  0.37435962     0.19400
C1708       C  0.92856099  0.61602918  0.40807580    -0.18700
C1709       C  0.94597605  0.59903084  0.42396054    -0.10900
C1710       C  0.94424968  0.56889158  0.40587202     0.21700
C1711       C  0.92504928  0.55624211  0.37155404    -0.20300
C1712       C  0.90708105  0.57281325  0.35609224    -0.11100
C1713       C  0.96262626  0.55061074  0.42225387    -0.15300
C1714       C  0.96391430  0.54597505  0.46107600    -0.29100
C1715       C  0.89198254  0.62243660  0.35666861    -0.03400
C1716       C  0.86220568  0.60567955  0.33697112    -0.39900
H1717       H  0.93067414  0.63952038  0.42212123     0.12800
H1718       H  0.96134335  0.60986991  0.44997392     0.12500
H1719       H  0.92370035  0.53331253  0.35693406     0.11900
H1720       H  0.89288466  0.56273184  0.32921204     0.12100
H1721       H  0.97345530  0.53898689  0.40223060     0.14900
H1722       H  0.94865522  0.55392217  0.47880270     0.13700
H1723       H  0.90559461  0.65133118  0.35804508     0.11300
H1724       H  0.84818058  0.57675487  0.33674879     0.13300
C1725       C  0.93803843  0.86066579  0.06236078     0.19400
C1726       C  0.95154260  0.83822120  0.07287448    -0.18700
C1727       C  0.93445452  0.81099634  0.10083435    -0.10900
C1728       C  0.90299715  0.80530246  0.11796122     0.21700
C1729       C  0.88850280  0.82627953  0.10510995    -0.20300
C1730       C  0.90564036  0.85343458  0.07757231    -0.11100
C1731       C  0.88464632  0.77897977  0.15001652    -0.15300
C1732       C  0.89436521  0.75600882  0.16458291    -0.29100
C1733       C  0.95834046  0.89282289  0.03741827    -0.03400
C1734       C  0.95664548  0.92272850  0.04472920    -0.39900
H1735       H  0.97598478  0.84265072  0.06070565     0.12800
H1736       H  0.94658289  0.79536542  0.10932046     0.12500
H1737       H  0.86410274  0.82221750  0.11709053     0.11900
H1738       H  0.89386213  0.86940148  0.06884041     0.12100
H1739       H  0.86185768  0.77870042  0.16255398     0.14900
H1740       H  0.91640039  0.75466828  0.15253335     0.13700
H1741       H  0.97502601  0.89229177  0.01433665     0.11300
H1742       H  0.94635820  0.92306226  0.07334419     0.13300
C1743       C  0.68289169  0.58583115  0.36838315     0.19400
C1744       C  0.68028844  0.57573670  0.40801810    -0.18700
C1745       C  0.64855740  0.56200422  0.42809893    -0.10900
C1746       C  0.61862448  0.55733464  0.40841464     0.21700
C1747       C  0.62128498  0.56623196  0.36844056    -0.20300
C1748       C  0.65291564  0.58044696  0.34872996    -0.11100
C1749       C  0.58414088  0.54396458  0.42760424    -0.15300
C1750       C  0.57666150  0.53371048  0.46530613    -0.29100
C1751       C  0.71651061  0.60036959  0.34721992    -0.03400
C1752       C  0.72503682  0.62440876  0.31780630    -0.39900
H1753       H  0.70296880  0.57907654  0.42361772     0.12800
H1754       H  0.64795118  0.55543019  0.45879876     0.12500
H1755       H  0.59870050  0.56221750  0.35219062     0.11900
H1756       H  0.65366775  0.58657375  0.31779173     0.12100
H1757       H  0.56326366  0.54209656  0.40937339     0.14900
H1758       H  0.59583232  0.53183093  0.48315195     0.13700
H1759       H  0.73442428  0.59099582  0.35584540     0.11300
H1760       H  0.70824581  0.63563903  0.31103160     0.13300
C1761       C  0.92708206  0.86884637  0.42423110     0.19400
C1762       C  0.89404106  0.83902003  0.42687232    -0.18700
C1763       C  0.88414131  0.81051422  0.40124534    -0.10900
C1764       C  0.90721767  0.81118970  0.37224396     0.21700
C1765       C  0.94046806  0.84069848  0.37007134    -0.20300
C1766       C  0.95033654  0.86922136  0.39561069    -0.11100
C1767       C  0.89777540  0.78158208  0.34414828    -0.15300
C1768       C  0.86496721  0.75951871  0.33367880    -0.29100
C1769       C  0.93711175  0.89772430  0.45344013    -0.03400
C1770       C  0.96426248  0.93047762  0.44824791    -0.39900
H1771       H  0.87586618  0.83761745  0.44911044     0.12800
H1772       H  0.85867695  0.78777890  0.40487687     0.12500
H1773       H  0.95892631  0.84174295  0.34841691     0.11900
H1774       H  0.97646742  0.89096097  0.39324356     0.12100
H1775       H  0.91859801  0.77925763  0.32987548     0.14900
H1776       H  0.84405310  0.76282365  0.34600316     0.13700
H1777       H  0.92115020  0.89154999  0.47942340     0.11300
H1778       H  0.97642214  0.93737008  0.41957989     0.13300
C1779       C  0.63081038  0.57316913  0.07305461     0.19400
C1780       C  0.65619856  0.60893438  0.07589968    -0.18700
C1781       C  0.68533313  0.61862356  0.09916984    -0.10900
C1782       C  0.68986150  0.59245515  0.11962410     0.21700
C1783       C  0.66502901  0.55656962  0.11543931    -0.20300
C1784       C  0.63590963  0.54697537  0.09237882    -0.11100
C1785       C  0.71808465  0.60127981  0.14823492    -0.15300
C1786       C  0.74586209  0.63368689  0.15170987    -0.29100
C1787       C  0.60001288  0.56369979  0.04852090    -0.03400
C1788       C  0.56977830  0.53393256  0.05481048    -0.39900
H1789       H  0.65302270  0.62953142  0.06085373     0.12800
H1790       H  0.70339277  0.64664895  0.10187224     0.12500
H1791       H  0.66787779  0.53582568  0.13060096     0.11900
H1792       H  0.61755148  0.51901668  0.08969683     0.12100
H1793       H  0.71489446  0.58033968  0.16876566     0.14900
H1794       H  0.75057112  0.65497272  0.13111115     0.13700
H1795       H  0.60268229  0.58138117  0.02446851     0.11300
H1796       H  0.56687447  0.51935988  0.08194999     0.13300
C1797       C  0.58948952  0.89761837  0.12735266     0.19400
C1798       C  0.55488290  0.88977720  0.12646169    -0.18700
C1799       C  0.54449560  0.90890799  0.10176561    -0.10900
C1800       C  0.56855421  0.93617443  0.07689648     0.21700
C1801       C  0.60302987  0.94311341  0.07691996    -0.20300
C1802       C  0.61350147  0.92421505  0.10205436    -0.11100
C1803       C  0.55845786  0.95704864  0.04988972    -0.15300
C1804       C  0.52836217  0.95762786  0.05350199    -0.29100
C1805       C  0.59986143  0.87784072  0.15514989    -0.03400
C1806       C  0.62982431  0.89407974  0.17450360    -0.39900
H1807       H  0.53589580  0.86916064  0.14545062     0.12800
H1808       H  0.51749175  0.90170804  0.10223401     0.12500
H1809       H  0.62200513  0.96345086  0.05767337     0.11900
H1810       H  0.64027634  0.93019939  0.10146744     0.12100
H1811       H  0.57655667  0.97291611  0.02688576     0.14900
H1812       H  0.51271561  0.94575527  0.07944650     0.13700
H1813       H  0.58126108  0.85040966  0.16249696     0.11300
H1814       H  0.64704724  0.92236135  0.16974795     0.13300
C1815       C  0.80931204  0.91029226  0.11627435     0.19400
C1816       C  0.82409457  0.89357402  0.09427899    -0.18700
C1817       C  0.85020236  0.91285903  0.06676180    -0.10900
C1818       C  0.86270222  0.94961983  0.06086544     0.21700
C1819       C  0.84676225  0.96611101  0.08100787    -0.20300
C1820       C  0.82062032  0.94683499  0.10881116    -0.11100
C1821       C  0.89491585  0.97103408  0.03739808    -0.15300
C1822       C  0.92193703  0.96534263  0.04361546    -0.29100
C1823       C  0.78366349  0.88917284  0.14783671    -0.03400
C1824       C  0.76186981  0.89913876  0.16374895    -0.39900
H1825       H  0.81592887  0.86558879  0.09897960     0.12800
H1826       H  0.86156775  0.89929188  0.05089653     0.12500
H1827       H  0.85593945  0.99436162  0.07697434     0.11900
H1828       H  0.81065369  0.96124169  0.12542284     0.12100
H1829       H  0.89646912  0.99071944  0.01609180     0.14900
H1830       H  0.91908585  0.94963018  0.06951659     0.13700
H1831       H  0.78253707  0.86454669  0.15803567     0.11300
H1832       H  0.76168209  0.92279296  0.15258814     0.13300
C1833       C  0.55778730  0.93906513  0.41051782     0.19400
C1834       C  0.58492279  0.95611039  0.38343683    -0.18700
C1835       C  0.59931988  0.93727376  0.36526163    -0.10900
C1836       C  0.58597975  0.90069975  0.37296869     0.21700
C1837       C  0.55858881  0.88352413  0.39983909    -0.20300
C1838       C  0.54499578  0.90271323  0.41912903    -0.11100
C1839       C  0.59824808  0.87972734  0.35027564    -0.15300
C1840       C  0.63187654  0.89207859  0.34190409    -0.29100
C1841       C  0.54218525  0.95944474  0.42773172    -0.03400
C1842       C  0.53421693  0.95748282  0.46589899    -0.39900
H1843       H  0.59489096  0.98402835  0.37621953     0.12800
H1844       H  0.61989916  0.95095346  0.34395134     0.12500
H1845       H  0.54763622  0.85523578  0.40570860     0.11900
H1846       H  0.52371702  0.88890800  0.43959222     0.12100
H1847       H  0.57905533  0.85402399  0.33932107     0.14900
H1848       H  0.65120157  0.91661561  0.35504724     0.13700
H1849       H  0.53814429  0.97739891  0.40862358     0.11300
H1850       H  0.53702744  0.93811086  0.48374271     0.13300
C1851       C  0.81194443  0.91225602  0.38075925     0.19400
C1852       C  0.83644845  0.94817051  0.38562862    -0.18700
C1853       C  0.86369394  0.95799121  0.41181554    -0.10900
C1854       C  0.86727386  0.93200282  0.43376317     0.21700
C1855       C  0.84179816  0.89625817  0.43062082    -0.20300
C1856       C  0.81441469  0.88637574  0.40435227    -0.11100
C1857       C  0.89710718  0.94180289  0.46033627    -0.15300
C1858       C  0.92790762  0.97074394  0.45328627    -0.29100
C1859       C  0.78455494  0.90335658  0.35077658    -0.03400
C1860       C  0.76536286  0.87063012  0.33598932    -0.39900
H1861       H  0.83483873  0.96878074  0.36862671     0.12800
H1862       H  0.88185919  0.98602679  0.41483081     0.12500
H1863       H  0.84345368  0.87587252  0.44798127     0.11900
H1864       H  0.79539324  0.85852478  0.40285738     0.12100
H1865       H  0.89370765  0.92469652  0.48539493     0.14900
H1866       H  0.93121875  0.98354684  0.42500750     0.13700
H1867       H  0.78116958  0.92511350  0.33903190     0.11300
H1868       H  0.76871224  0.84852424  0.34632486     0.13300
C1869       C  0.55352516  0.61618227  0.10795987     0.19400
C1870       C  0.54051441  0.61672776  0.14531916    -0.18700
C1871       C  0.55342188  0.64853273  0.16612489    -0.10900
C1872       C  0.58020630  0.68048321  0.15050056     0.21700
C1873       C  0.59333950  0.67989202  0.11301304    -0.20300
C1874       C  0.58017612  0.64809557  0.09205170    -0.11100
C1875       C  0.59354570  0.71344804  0.17445912    -0.15300
C1876       C  0.62445952  0.74285386  0.16866957    -0.29100
C1877       C  0.53938115  0.58186253  0.08675600    -0.03400
C1878       C  0.53750296  0.57971732  0.04742017    -0.39900
H1879       H  0.52000928  0.59252334  0.15826807     0.12800
H1880       H  0.54267938  0.64806140  0.19482119     0.12500
H1881       H  0.61353744  0.70383299  0.09947509     0.11900
H1882       H  0.59130157  0.64847449  0.06364553     0.12100
H1883       H  0.57816356  0.71247622  0.19980788     0.14900
H1884       H  0.64143636  0.74393427  0.14511114     0.13700
H1885       H  0.52843258  0.55732807  0.10398419     0.11300
H1886       H  0.54482443  0.60383098  0.03063975     0.13300
C1887       C  0.58766005  0.63504842  0.42883390     0.19400
C1888       C  0.60303937  0.67118225  0.43853539    -0.18700
C1889       C  0.61732577  0.69766463  0.40922624    -0.10900
C1890       C  0.61736082  0.68842550  0.36973874     0.21700
C1891       C  0.60332301  0.65237676  0.36037457    -0.19900
C1892       C  0.58808209  0.62598356  0.38941392    -0.11100
C1893       C  0.63163534  0.71569785  0.33774548    -0.15300
C1894       C  0.62778456  0.74492693  0.33771728    -0.29100
C1895       C  0.57150887  0.60703942  0.45996730    -0.03400
C1896       C  0.54090397  0.57762873  0.45405092    -0.39900
H1897       H  0.60330137  0.67888021  0.46870802     0.12800
H1898       H  0.62864307  0.72530589  0.41750648     0.12500
H1899       H  0.60327766  0.64454668  0.33028659     0.11900
H1900       H  0.57665421  0.59847170  0.38091565     0.12100
H1901       H  0.64299104  0.71018531  0.31225425     0.14900
H1902       H  0.61389164  0.74891159  0.36174624     0.13700
H1903       H  0.58495128  0.61130482  0.48731032     0.11300
H1904       H  0.53007666  0.57544477  0.42531414     0.13300
O1905       O  0.66997088  0.79240382  0.69560856    -0.84600
O1906       O  0.73312073  0.85018004  0.71109385    -0.81700
C1907       C  0.73520702  0.87743318  0.69351075     0.98800
O1908       O  0.71764055  0.89151983  0.70480240    -0.81700
O1909       O  0.66086532  0.89387232  0.72870633    -0.84300
C1910       C  0.63899851  0.87498120  0.70337509     1.03400
O1911       O  0.62510821  0.84134563  0.70487104    -0.77100
O1912       O  0.61877448  0.77418508  0.72117812    -0.77300
C1913       C  0.63803195  0.77123806  0.69569971     1.03300
O1914       O  0.66003243  0.77117116  0.77838258    -0.84600
O1915       O  0.72084566  0.83046818  0.79372897    -0.81700
C1916       C  0.73961362  0.86257868  0.80233298     0.98900
O1917       O  0.73658365  0.88693785  0.78456601    -0.81700
O1918       O  0.67558066  0.88362231  0.80856444    -0.84300
C1919       C  0.64390548  0.87410442  0.81160478     1.03300
O1920       O  0.62273163  0.85251021  0.78735215    -0.77100
O1921       O  0.62645624  0.79127519  0.80237148    -0.77300
C1922       C  0.63887017  0.77029695  0.80438057     1.03300
Cr1923     Cr  0.69433446  0.81308128  0.74508333     1.93700
Cr1924     Cr  0.69593315  0.88517594  0.75647251     1.93200
Cr1925     Cr  0.62675535  0.81646004  0.75363720     1.39100
O1926       O  0.67257681  0.83827307  0.75178243    -1.22400
C1927       C  0.53723921  0.51892637  0.52753219    -0.01800
C1928       C  0.97835169  0.96059366  0.97803571    -0.01800
C1929       C  0.54033742  0.52079699  0.98328948    -0.01800
C1930       C  0.51834464  0.97885041  0.98181560    -0.01800
C1931       C  0.51552445  0.97881070  0.52848251    -0.01800
C1932       C  0.97672140  0.95862628  0.52254305    -0.01800
C1933       C  0.95939917  0.98306604  0.52343003    -0.01800
C1934       C  0.52198113  0.54437201  0.98130934    -0.01800
C1935       C  0.98049233  0.52391722  0.97902264    -0.01800
C1936       C  0.95969883  0.98356293  0.97717646    -0.01800
C1937       C  0.97963092  0.52372216  0.52532854    -0.01800
C1938       C  0.52043020  0.54328327  0.52523740    -0.01800
O1939       O  0.76309564  0.66132597  0.76749630    -0.84600
O1940       O  0.82358999  0.71614066  0.79336421    -0.81700
C1941       C  0.85444337  0.73207911  0.80453265     0.98800
O1942       O  0.87726550  0.72649093  0.78829758    -0.81700
O1943       O  0.86545760  0.65869024  0.80871912    -0.84300
C1944       C  0.85144360  0.62518382  0.80954433     1.03400
O1945       O  0.82802440  0.60692251  0.78551011    -0.77100
O1946       O  0.77307829  0.62072497  0.79496538    -0.77300
C1947       C  0.75522963  0.63638947  0.79236568     1.03300
O1948       O  0.79219101  0.67468500  0.68936448    -0.84600
O1949       O  0.85032402  0.73368866  0.71403642    -0.81700
C1950       C  0.87526536  0.73252970  0.69700378     0.98900
O1951       O  0.88435775  0.71019502  0.70755904    -0.81700
O1952       O  0.87613445  0.64541902  0.72900478    -0.84300
C1953       C  0.85605476  0.62249359  0.70484873     1.03300
O1954       O  0.82443672  0.61387293  0.70351438    -0.77100
O1955       O  0.76505422  0.61982248  0.71150958    -0.77300
C1956       C  0.76871738  0.64300257  0.68593352     1.03300
Cr1957     Cr  0.80889172  0.69429567  0.74173729     1.93700
Cr1958     Cr  0.87217274  0.68397748  0.75786999     1.93200
Cr1959     Cr  0.79976243  0.61910580  0.74908516     1.39100
O1960       O  0.82711825  0.66589588  0.74970185    -1.22400
C1961       C  0.91578148  0.59476927  0.65168752     0.19400
C1962       C  0.94388201  0.61316750  0.62604529    -0.18700
C1963       C  0.95670051  0.59469941  0.60407247    -0.10900
C1964       C  0.94208320  0.55755015  0.60819588     0.21700
C1965       C  0.91467323  0.53930291  0.63479905    -0.20300
C1966       C  0.90128946  0.55766793  0.65603750    -0.11100
C1967       C  0.95543058  0.53729531  0.58584835    -0.15300
C1968       C  0.96497184  0.54437061  0.54795079    -0.29100
C1969       C  0.90293732  0.61488527  0.67499333    -0.03400
C1970       C  0.86901944  0.60372202  0.67966175    -0.39900
H1971       H  0.95570126  0.64183038  0.62278991     0.12800
H1972       H  0.97852671  0.60959000  0.58460241     0.12500
H1973       H  0.90334435  0.51073556  0.63874983     0.11900
H1974       H  0.88010091  0.54303059  0.67638990     0.12100
H1975       H  0.95577474  0.51488549  0.60043962     0.14900
H1976       H  0.96649144  0.56828152  0.53526880     0.13700
H1977       H  0.92183804  0.64003310  0.68740415     0.11300
H1978       H  0.85021850  0.57988792  0.66489883     0.13300
C1979       C  0.91106128  0.60341748  0.87191550     0.19400
C1980       C  0.92935455  0.61516351  0.90693982    -0.18700
C1981       C  0.94609482  0.59758631  0.92313831    -0.10900
C1982       C  0.94535575  0.56825360  0.90416169     0.21700
C1983       C  0.92819481  0.55733032  0.86835419    -0.20300
C1984       C  0.91088915  0.57450015  0.85251831    -0.11100
C1985       C  0.96276736  0.54914545  0.92105862    -0.15300
C1986       C  0.96356273  0.54434678  0.95994372    -0.29100
C1987       C  0.89429832  0.62307602  0.85464397    -0.03400
C1988       C  0.86439655  0.60633772  0.83510061    -0.39900
H1989       H  0.93047727  0.63783554  0.92190760     0.12800
H1990       H  0.96008875  0.60733955  0.95020973     0.12500
H1991       H  0.92777428  0.53517695  0.85293705     0.11900
H1992       H  0.89800720  0.56562561  0.82469417     0.12100
H1993       H  0.97379332  0.53753943  0.90128164     0.14900
H1994       H  0.94820138  0.55227882  0.97749579     0.13700
H1995       H  0.90742657  0.65189324  0.85699555     0.11300
H1996       H  0.85092343  0.57743361  0.83404509     0.13300
C1997       C  0.93968299  0.85870567  0.55774197     0.19400
C1998       C  0.95478687  0.83919021  0.57336473    -0.18700
C1999       C  0.93680904  0.81188872  0.60102826    -0.10900
C2000       C  0.90273221  0.80275610  0.61256140     0.21700
C2001       C  0.88657358  0.81985935  0.59352535    -0.20300
C2002       C  0.90465487  0.84721084  0.56624534    -0.11100
C2003       C  0.88331614  0.77680311  0.64488544    -0.15300
C2004       C  0.89511554  0.75775629  0.66496195    -0.29100
C2005       C  0.96119531  0.89267339  0.53564804    -0.03400
C2006       C  0.95585407  0.92085401  0.54087420    -0.39900
H2007       H  0.98104758  0.84606677  0.56558212     0.12800
H2008       H  0.95031751  0.79904137  0.61379961     0.12500
H2009       H  0.86009331  0.81280482  0.60064591     0.11900
H2010       H  0.89146338  0.86007503  0.55259930     0.12100
H2011       H  0.85801319  0.77338697  0.65276409     0.14900
H2012       H  0.91958135  0.75929864  0.65719867     0.13700
H2013       H  0.98230824  0.89516551  0.51721147     0.11300
H2014       H  0.93625543  0.91644892  0.56219422     0.13300
C2015       C  0.68062855  0.58575982  0.86623729     0.19400
C2016       C  0.67833976  0.57553511  0.90573171    -0.18700
C2017       C  0.64698197  0.56218827  0.92631226    -0.10900
C2018       C  0.61697260  0.55809128  0.90738126     0.21700
C2019       C  0.61918666  0.56718537  0.86745121    -0.20300
C2020       C  0.65059652  0.58102837  0.84714187    -0.11100
C2021       C  0.58294938  0.54494067  0.92755794    -0.15300
C2022       C  0.57656789  0.53539342  0.96560104    -0.29100
C2023       C  0.71419754  0.59990537  0.84506877    -0.03400
C2024       C  0.72343253  0.62436931  0.81608291    -0.39900
H2025       H  0.70105375  0.57845354  0.92089082     0.12800
H2026       H  0.64680793  0.55542197  0.95686114     0.12500
H2027       H  0.59648450  0.56365141  0.85178146     0.11900
H2028       H  0.65116215  0.58742069  0.81630704     0.12100
H2029       H  0.56156091  0.54262654  0.90994430     0.14900
H2030       H  0.59620471  0.53400417  0.98298048     0.13700
H2031       H  0.73193723  0.59040664  0.85401174     0.11300
H2032       H  0.70678474  0.63566686  0.80884489     0.13300
C2033       C  0.92486166  0.86671915  0.92835207     0.19400
C2034       C  0.89098390  0.83816003  0.92920033    -0.18700
C2035       C  0.88103626  0.80952252  0.90364656    -0.10900
C2036       C  0.90496218  0.80885746  0.87665464     0.21700
C2037       C  0.93906794  0.83679852  0.87686909    -0.20300
C2038       C  0.94895197  0.86531207  0.90228976    -0.11100
C2039       C  0.89572204  0.77984706  0.84777955    -0.15300
C2040       C  0.86320036  0.75834932  0.83606984    -0.29100
C2041       C  0.93485138  0.89661421  0.95620739    -0.03400
C2042       C  0.96311506  0.92853196  0.95056772    -0.39900
H2043       H  0.87212028  0.83805046  0.94961522     0.12800
H2044       H  0.85477696  0.78794685  0.90558554     0.12500
H2045       H  0.95820417  0.83677304  0.85695401     0.11900
H2046       H  0.97565684  0.88586636  0.90156505     0.12100
H2047       H  0.91671733  0.77769223  0.83368566     0.14900
H2048       H  0.84198163  0.76116878  0.84828506     0.13700
H2049       H  0.91851440  0.89194915  0.98165381     0.11300
H2050       H  0.97579384  0.93395055  0.92222908     0.13300
C2051       C  0.62948373  0.57251238  0.57397063     0.19400
C2052       C  0.65335426  0.60855288  0.57903060    -0.18700
C2053       C  0.68199668  0.61858092  0.60325584    -0.10900
C2054       C  0.68759721  0.59254719  0.62239821     0.21700
C2055       C  0.66401847  0.55649296  0.61655562    -0.20300
C2056       C  0.63539595  0.54653475  0.59250460    -0.11100
C2057       C  0.71604945  0.60159413  0.65074827    -0.15300
C2058       C  0.74393442  0.63402818  0.65357690    -0.29100
C2059       C  0.59927108  0.56261539  0.54826735    -0.03400
C2060       C  0.56931219  0.53225934  0.55359646    -0.39900
H2061       H  0.64939571  0.62901331  0.56487464     0.12800
H2062       H  0.69894002  0.64667424  0.60759086     0.12500
H2063       H  0.66765466  0.53587957  0.63084327     0.11900
H2064       H  0.61813629  0.51846646  0.58825882     0.12100
H2065       H  0.71337723  0.58065533  0.67096826     0.14900
H2066       H  0.74805792  0.65519859  0.63307475     0.13700
H2067       H  0.60188544  0.58064917  0.52465157     0.11300
H2068       H  0.56644503  0.51711697  0.58023608     0.13300
C2069       C  0.59192253  0.89803129  0.62343858     0.19400
C2070       C  0.55692267  0.88840139  0.62088277    -0.18700
C2071       C  0.54640232  0.90862256  0.59819865    -0.10900
C2072       C  0.57064497  0.93857999  0.57663481     0.21700
C2073       C  0.60566732  0.94746317  0.57816253    -0.20300
C2074       C  0.61631472  0.92763587  0.60165456    -0.11100
C2075       C  0.56001179  0.95993080  0.55106757    -0.15300
C2076       C  0.52904096  0.95876555  0.55452842    -0.29100
C2077       C  0.60224076  0.87733676  0.64999606    -0.03400
C2078       C  0.62997511  0.89363214  0.67297845    -0.39900
H2079       H  0.53769048  0.86561447  0.63727956     0.12800
H2080       H  0.51917137  0.90026994  0.59754368     0.12500
H2081       H  0.62487281  0.96997157  0.56140376     0.11900
H2082       H  0.64351312  0.93525934  0.60255392     0.12100
H2083       H  0.57816149  0.97710028  0.52876404     0.14900
H2084       H  0.51318529  0.94535653  0.57991404     0.13700
H2085       H  0.58483304  0.84897759  0.65384508     0.11300
H2086       H  0.64573848  0.92242291  0.67120811     0.13300
C2087       C  0.80993451  0.90777382  0.61736878     0.19400
C2088       C  0.83103665  0.89401674  0.60396534    -0.18700
C2089       C  0.85832712  0.91359819  0.57803132    -0.10900
C2090       C  0.86564339  0.94778337  0.56494905     0.21700
C2091       C  0.84372751  0.96107844  0.57662129    -0.20300
C2092       C  0.81628578  0.94147804  0.60285032    -0.11100
C2093       C  0.89678452  0.96951710  0.54012797    -0.15300
C2094       C  0.92574752  0.96763088  0.54721628    -0.29100
C2095       C  0.78341358  0.88705049  0.64819771    -0.03400
C2096       C  0.75886289  0.89487373  0.65991474    -0.39900
H2097       H  0.82681841  0.86819967  0.61418059     0.12800
H2098       H  0.87415019  0.90215362  0.56857444     0.12500
H2099       H  0.84871364  0.98723620  0.56677034     0.11900
H2100       H  0.80118373  0.95365012  0.61247422     0.12100
H2101       H  0.89561901  0.98572020  0.51618686     0.14900
H2102       H  0.92706522  0.95771030  0.57612662     0.13700
H2103       H  0.78484020  0.86510228  0.66265485     0.11300
H2104       H  0.75632724  0.91607377  0.64544792     0.13300
C2105       C  0.55827709  0.93915044  0.90884710     0.19400
C2106       C  0.58645864  0.95620960  0.88304269    -0.18700
C2107       C  0.60072580  0.93706347  0.86518215    -0.10900
C2108       C  0.58633769  0.90020233  0.87192955     0.21700
C2109       C  0.55775983  0.88301630  0.89731841    -0.20300
C2110       C  0.54420244  0.90243774  0.91624061    -0.11100
C2111       C  0.59870494  0.87899196  0.84961246    -0.15300
C2112       C  0.63230890  0.89130350  0.84082772    -0.29100
C2113       C  0.54311959  0.95996496  0.92623193    -0.03400
C2114       C  0.53395636  0.95696975  0.96416335    -0.39900
H2115       H  0.59743669  0.98440961  0.87670070     0.12800
H2116       H  0.62214230  0.95084907  0.84488598     0.12500
H2117       H  0.54586896  0.85453255  0.90236405     0.11900
H2118       H  0.52205569  0.88859198  0.93557649     0.12100
H2119       H  0.57950815  0.85312869  0.83904044     0.14900
H2120       H  0.65174614  0.91597106  0.85359596     0.13700
H2121       H  0.54051339  0.97909846  0.90757329     0.11300
H2122       H  0.53538822  0.93654184  0.98155884     0.13300
C2123       C  0.81196657  0.91337158  0.87736808     0.19400
C2124       C  0.83782903  0.94898983  0.88032764    -0.18700
C2125       C  0.86496617  0.95867582  0.90666642    -0.10900
C2126       C  0.86690022  0.93282367  0.93068958     0.21700
C2127       C  0.84004455  0.89756963  0.92940370    -0.20300
C2128       C  0.81284290  0.88784216  0.90300812    -0.11100
C2129       C  0.89611028  0.94220404  0.95801157    -0.15300
C2130       C  0.92768930  0.96996547  0.95098532    -0.29100
C2131       C  0.78471564  0.90414440  0.84727111    -0.03400
C2132       C  0.76571315  0.87112166  0.83317916    -0.39900
H2133       H  0.83737090  0.96937234  0.86171675     0.12800
H2134       H  0.88424109  0.98646127  0.90826779     0.12500
H2135       H  0.84039877  0.87740352  0.94844313     0.11900
H2136       H  0.79262179  0.86038634  0.90303980     0.12100
H2137       H  0.89150338  0.92540213  0.98358412     0.14900
H2138       H  0.93224951  0.98231647  0.92227184     0.13700
H2139       H  0.78130136  0.92569496  0.83493281     0.11300
H2140       H  0.76936360  0.84934964  0.84408709     0.13300
C2141       C  0.55461809  0.61619531  0.60560220     0.19400
C2142       C  0.54372355  0.61546530  0.64436585    -0.18700
C2143       C  0.55594232  0.64690221  0.66562668    -0.10900
C2144       C  0.57991320  0.67977107  0.64891302     0.21700
C2145       C  0.59066492  0.68061303  0.60986835    -0.20300
C2146       C  0.57818572  0.64913793  0.58845568    -0.11100
C2147       C  0.59299872  0.71230776  0.67329174    -0.15300
C2148       C  0.62387471  0.74163359  0.66748722    -0.29100
C2149       C  0.54156517  0.58204585  0.58441879    -0.03400
C2150       C  0.53812956  0.57951139  0.54528308    -0.39900
H2151       H  0.52552677  0.59046093  0.65819949     0.12800
H2152       H  0.54706717  0.64544545  0.69553262     0.12500
H2153       H  0.60851853  0.70546771  0.59564270     0.11900
H2154       H  0.58757085  0.65063158  0.55881442     0.12100
H2155       H  0.57781409  0.71092151  0.69900617     0.14900
H2156       H  0.64070031  0.74265849  0.64373357     0.13700
H2157       H  0.53249058  0.55770115  0.60171628     0.11300
H2158       H  0.54291416  0.60304381  0.52862251     0.13300
C2159       C  0.58707815  0.63517121  0.92952061     0.19400
C2160       C  0.60474596  0.67138661  0.93906811    -0.18700
C2161       C  0.61893923  0.69762363  0.90947075    -0.10900
C2162       C  0.61662948  0.68795653  0.86983510     0.21700
C2163       C  0.60016775  0.65176859  0.86051212    -0.19900
C2164       C  0.58505427  0.62570525  0.88986639    -0.11100
C2165       C  0.63102477  0.71494369  0.83762505    -0.15300
C2166       C  0.62757028  0.74439690  0.83742789    -0.29100
C2167       C  0.57125246  0.60740857  0.96095346    -0.03400
C2168       C  0.54002563  0.57859905  0.95604054    -0.39900
H2169       H  0.60692809  0.67937303  0.96938755     0.12800
H2170       H  0.63204888  0.72538780  0.91755997     0.12500
H2171       H  0.59824512  0.64363562  0.83026657     0.11900
H2172       H  0.57194096  0.59811075  0.88140438     0.12100
H2173       H  0.64181999  0.70889052  0.81201441     0.14900
H2174       H  0.61411302  0.74880526  0.86163050     0.13700
H2175       H  0.58557699  0.61116855  0.98760482     0.11300
H2176       H  0.52820109  0.57726779  0.92812631     0.13300
loop_ 
_geom_bond_atom_site_label_1 
_geom_bond_atom_site_label_2 
_geom_bond_distance 
_geom_bond_site_symmetry_2 
_ccdc_geom_bond_type 
O1          Cr19   1.982       .  S
O1            C9   1.256       .  A
O2          Cr19   2.031       .  S
O2            C3   1.272       .  A
C3            O4   1.255       .  A
C3          C192   1.480       .  S
O4          Cr20   1.960       .  S
O5          Cr20   2.002       .  S
O5            C6   1.266       .  A
C6            O7   1.266       .  A
C6          C174   1.471       .  S
O7          Cr21   1.984       .  S
O8          Cr21   2.018       .  S
O8            C9   1.264       .  A
C9          C244   1.484       .  S
O10         Cr19   2.037       .  S
O10          C18   1.275       .  A
O11         Cr19   1.971       .  S
O11          C12   1.256       .  A
C12          O13   1.265       .  A
C12         C228   1.478       .  S
O13         Cr20   2.009       .  S
O14         Cr20   1.978       .  S
O14          C15   1.258       .  A
C15          O16   1.265       .  A
C15         C208   1.475       .  S
O16         Cr21   2.009       .  S
O17         Cr21   1.967       .  S
O17          C18   1.261       .  A
C18         C262   1.480       .  S
Cr19         O22   1.775       .  S
Cr20         O22   1.774       .  S
Cr21         O22   1.774       .  S
C23          C34   1.548       .  S
C23         C297   1.557   1_554  S
C23         C571   1.566   1_545  S
C23         C156   1.532       .  S
C24          C32   1.559       .  S
C24        C1114   1.563       .  S
C24         C300   1.548       .  S
C24         C138   1.537       .  S
C25          C30   1.576       .  S
C25         C295   1.557       .  S
C25         C570   1.554   1_545  S
C25         C118   1.529       .  S
C26        C1112   1.564   1_455  S
C26         C569   1.558       .  S
C26         C299   1.552       .  S
C26         C210   1.537       .  S
C27         C567   1.568       .  S
C27         C298   1.551   1_554  S
C27        C1116   1.561   1_455  S
C27         C172   1.539       .  S
C28          C29   1.570       .  S
C28         C296   1.547   1_554  S
C28        C1115   1.563       .  S
C28         C102   1.542       .  S
C29         C304   1.551   1_554  S
C29         C577   1.568       .  S
C29         C190   1.532       .  S
C30        C1119   1.574   1_455  S
C30         C306   1.550       .  S
C30         C264   1.543       .  S
C31        C1118   1.570       .  S
C31         C576   1.557   1_545  S
C31         C305   1.557       .  S
C31          C82   1.544       .  S
C32         C301   1.551       .  S
C32         C575   1.557       .  S
C32         C226   1.534       .  S
C33         C573   1.566   1_545  S
C33         C303   1.557   1_554  S
C33        C1122   1.550       .  S
C33          C64   1.536       .  S
C34         C302   1.553   1_554  S
C34        C1121   1.554   1_455  S
C34         C246   1.534       .  S
O35         Cr53   2.012       .  S
O35          C43   1.266       .  A
O36         Cr53   1.964       .  S
O36          C37   1.256       .  A
C37          O38   1.270       .  A
C37         C136   1.476       .  S
O38         Cr54   2.026       .  S
O39         Cr54   1.982       .  S
O39          C40   1.262       .  A
C40          O41   1.263       .  A
C40          C84   1.475       .  S
O41         Cr55   2.002       .  S
O42         Cr55   1.979       .  S
O42          C43   1.261       .  A
C43         C120   1.473       .  S
O44         Cr53   1.972       .  S
O44          C52   1.256       .  A
O45         Cr53   2.011       .  S
O45          C46   1.266       .  A
C46          O47   1.255       .  A
C46         C100   1.475       .  S
O47         Cr54   1.967       .  S
O48         Cr54   2.008       .  S
O48          C49   1.268       .  A
C49          O50   1.262       .  A
C49          C66   1.474       .  S
O50         Cr55   1.978       .  S
O51         Cr55   2.014       .  S
O51          C52   1.267       .  A
C52         C154   1.475       .  S
Cr53         O56   1.772       .  S
Cr54         O56   1.774       .  S
Cr55         O56   1.771       .  S
C57          C65   1.478       .  S
C57          C58   1.402       .  A
C57          C62   1.406       .  A
C58          C59   1.397       .  A
C58          H67   1.083       .  S
C59          C60   1.405       .  A
C59          H68   1.083       .  S
C60          C63   1.476       .  S
C60          C61   1.402       .  A
C61          C62   1.398       .  A
C61          H69   1.083       .  S
C62          H70   1.083       .  S
C63          H71   1.085       .  S
C63          C64   1.344       .  D
C64          H72   1.082       .  S
C65          H73   1.087       .  S
C65          C66   1.344       .  D
C66          H74   1.087       .  S
C75          C83   1.483       .  S
C75          C76   1.401       .  A
C75          C80   1.408       .  A
C76          C77   1.399       .  A
C76          H85   1.083       .  S
C77          C78   1.408       .  A
C77          H86   1.083       .  S
C78          C81   1.485       .  S
C78          C79   1.402       .  A
C79          C80   1.399       .  A
C79          H87   1.084       .  S
C80          H88   1.083       .  S
C81          H89   1.086       .  S
C81          C82   1.345       .  D
C82          H90   1.078       .  S
C83          H91   1.087       .  S
C83          C84   1.343       .  D
C84          H92   1.087       .  S
C93         C101   1.487       .  S
C93          C94   1.400       .  A
C93          C98   1.407       .  A
C94          C95   1.401       .  A
C94         H103   1.082       .  S
C95          C96   1.412       .  A
C95         H104   1.080       .  S
C96          C99   1.489       .  S
C96          C97   1.402       .  A
C97          C98   1.395       .  A
C97         H105   1.084       .  S
C98         H106   1.082       .  S
C99         H107   1.087       .  S
C99         C100   1.343       .  D
C100        H108   1.083       .  S
C101        H109   1.085       .  S
C101        C102   1.350       .  D
C102        H110   1.074       .  S
C111        C119   1.482       .  S
C111        C112   1.402       .  A
C111        C116   1.404       .  A
C112        C113   1.400       .  A
C112        H121   1.083       .  S
C113        C114   1.410       .  A
C113        H122   1.080       .  S
C114        C117   1.488       .  S
C114        C115   1.404       .  A
C115        C116   1.395       .  A
C115        H123   1.083       .  S
C116        H124   1.083       .  S
C117        H125   1.085       .  S
C117        C118   1.344       .  D
C118        H126   1.079       .  S
C119        H127   1.086       .  S
C119        C120   1.344       .  D
C120        H128   1.086       .  S
C129        C137   1.491       .  S
C129        C130   1.403       .  A
C129        C134   1.411       .  A
C130        C131   1.399       .  A
C130        H139   1.084       .  S
C131        C132   1.409       .  A
C131        H140   1.081       .  S
C132        C135   1.490       .  S
C132        C133   1.402       .  A
C133        C134   1.398       .  A
C133        H141   1.084       .  S
C134        H142   1.080       .  S
C135        H143   1.087       .  S
C135        C136   1.344       .  D
C136        H144   1.085       .  S
C137        H145   1.080       .  S
C137        C138   1.345       .  D
C138        H146   1.082       .  S
C147        C155   1.481       .  S
C147        C148   1.402       .  A
C147        C152   1.406       .  A
C148        C149   1.400       .  A
C148        H157   1.084       .  S
C149        C150   1.410       .  A
C149        H158   1.081       .  S
C150        C153   1.484       .  S
C150        C151   1.401       .  A
C151        C152   1.392       .  A
C151        H159   1.084       .  S
C152        H160   1.080       .  S
C153        H161   1.087       .  S
C153        C154   1.344       .  D
C154        H162   1.085       .  S
C155        H163   1.079       .  S
C155        C156   1.344       .  D
C156        H164   1.084       .  S
C165        C173   1.481       .  S
C165        C166   1.399       .  A
C165        C170   1.408       .  A
C166        C167   1.396       .  A
C166        H175   1.084       .  S
C167        C168   1.410       .  A
C167        H176   1.080       .  S
C168        C171   1.486       .  S
C168        C169   1.401       .  A
C169        C170   1.398       .  A
C169        H177   1.083       .  S
C170        H178   1.082       .  S
C171        H179   1.086       .  S
C171        C172   1.345       .  D
C172        H180   1.083       .  S
C173        H181   1.087       .  S
C173        C174   1.341       .  D
C174        H182   1.087       .  S
C183        C191   1.496       .  S
C183        C184   1.402       .  A
C183        C188   1.416       .  A
C184        C185   1.395       .  A
C184        H193   1.084       .  S
C185        C186   1.407       .  A
C185        H194   1.082       .  S
C186        C189   1.489       .  S
C186        C187   1.399       .  A
C187        C188   1.405       .  A
C187        H195   1.083       .  S
C188        H196   1.079       .  S
C189        H197   1.085       .  S
C189        C190   1.344       .  D
C190        H198   1.082       .  S
C191        H199   1.087       .  S
C191        C192   1.343       .  D
C192        H200   1.083       .  S
C201        C209   1.481       .  S
C201        C202   1.402       .  A
C201        C206   1.407       .  A
C202        C203   1.397       .  A
C202        H211   1.083       .  S
C203        C204   1.405       .  A
C203        H212   1.083       .  S
C204        C207   1.481       .  S
C204        C205   1.403       .  A
C205        C206   1.401       .  A
C205        H213   1.083       .  S
C206        H214   1.083       .  S
C207        H215   1.087       .  S
C207        C208   1.345       .  D
C208        H216   1.087       .  S
C209        H217   1.084       .  S
C209        C210   1.343       .  D
C210        H218   1.080       .  S
C219        C227   1.491       .  S
C219        C220   1.402       .  A
C219        C224   1.411       .  A
C220        C221   1.396       .  A
C220        H229   1.084       .  S
C221        C222   1.409       .  A
C221        H230   1.082       .  S
C222        C225   1.488       .  S
C222        C223   1.402       .  A
C223        C224   1.401       .  A
C223        H231   1.084       .  S
C224        H232   1.080       .  S
C225        H233   1.084       .  S
C225        C226   1.345       .  D
C226        H234   1.080       .  S
C227        H235   1.087       .  S
C227        C228   1.346       .  D
C228        H236   1.084       .  S
C237        C245   1.488       .  S
C237        C238   1.402       .  A
C237        C242   1.407       .  A
C238        C239   1.400       .  A
C238        H247   1.084       .  S
C239        C240   1.406       .  A
C239        H248   1.083       .  S
C240        C243   1.494       .  S
C240        C241   1.409       .  A
C241        C242   1.403       .  A
C241        H249   1.081       .  S
C242        H250   1.083       .  S
C243        H251   1.087       .  S
C243        C244   1.350       .  D
C244        H252   1.084       .  S
C245        H253   1.087       .  S
C245        C246   1.346       .  D
C246        H254   1.081       .  S
C255        C263   1.491       .  S
C255        C256   1.403       .  A
C255        C260   1.408       .  A
C256        C257   1.404       .  A
C256        H265   1.084       .  S
C257        C258   1.410       .  A
C257        H266   1.082       .  S
C258        C261   1.489       .  S
C258        C259   1.401       .  A
C259        C260   1.398       .  A
C259        H267   1.084       .  S
C260        H268   1.079       .  S
C261        H269   1.087       .  S
C261        C262   1.344       .  D
C262        H270   1.087       .  S
C263        H271   1.077       .  S
C263        C264   1.349       .  D
C264        H272   1.077       .  S
O273       Cr291   1.976       .  S
O273        C281   1.254       .  A
O274       Cr291   2.034       .  S
O274        C275   1.272       .  A
C275        O276   1.253       .  A
C275        C464   1.477       .  S
O276       Cr292   1.953       .  S
O277       Cr292   2.006       .  S
O277        C278   1.267       .  A
C278        O279   1.266       .  A
C278        C446   1.474       .  S
O279       Cr293   1.985       .  S
O280       Cr293   2.019       .  S
O280        C281   1.264       .  A
C281        C516   1.481       .  S
O282       Cr291   2.038       .  S
O282        C290   1.276       .  A
O283       Cr291   1.965       .  S
O283        C284   1.254       .  A
C284        O285   1.266       .  A
C284        C500   1.475       .  S
O285       Cr292   2.010       .  S
O286       Cr292   1.976       .  S
O286        C287   1.257       .  A
C287        O288   1.265       .  A
C287        C480   1.476       .  S
O288       Cr293   2.012       .  S
O289       Cr293   1.966       .  S
O289        C290   1.260       .  A
C290        C534   1.480       .  S
Cr291       O294   1.775       .  S
Cr292       O294   1.770       .  S
Cr293       O294   1.775       .  S
C295        C843   1.572   1_545  S
C295        C306   1.545       .  S
C295        C428   1.535       .  S
C296       C1386   1.560       .  S
C296        C304   1.556       .  S
C296        C410   1.541       .  S
C297        C842   1.559   1_545  S
C297        C302   1.575       .  S
C297        C390   1.530       .  S
C298       C1384   1.563   1_455  S
C298        C841   1.559       .  S
C298        C482   1.537       .  S
C299        C839   1.571       .  S
C299       C1388   1.562   1_455  S
C299        C444   1.541       .  S
C300       C1387   1.562       .  S
C300        C301   1.569       .  S
C300        C374   1.546       .  S
C301        C849   1.564       .  S
C301        C462   1.531       .  S
C302       C1391   1.571   1_455  S
C302        C536   1.542       .  S
C303       C1390   1.573       .  S
C303        C848   1.560   1_545  S
C303        C354   1.542       .  S
C304        C847   1.555       .  S
C304        C498   1.531       .  S
C305        C845   1.566   1_545  S
C305       C1394   1.552       .  S
C305        C336   1.535       .  S
C306       C1393   1.550   1_455  S
C306        C518   1.532       .  S
O307       Cr325   2.014       .  S
O307        C315   1.267       .  A
O308       Cr325   1.964       .  S
O308        C309   1.256       .  A
C309        O310   1.270       .  A
C309        C408   1.477       .  S
O310       Cr326   2.026       .  S
O311       Cr326   1.981       .  S
O311        C312   1.261       .  A
C312        O313   1.263       .  A
C312        C356   1.474       .  S
O313       Cr327   2.003       .  S
O314       Cr327   1.976       .  S
O314        C315   1.261       .  A
C315        C392   1.474       .  S
O316       Cr325   1.968       .  S
O316        C324   1.255       .  A
O317       Cr325   2.013       .  S
O317        C318   1.267       .  A
C318        O319   1.255       .  A
C318        C372   1.478       .  S
O319       Cr326   1.970       .  S
O320       Cr326   2.010       .  S
O320        C321   1.269       .  A
C321        O322   1.260       .  A
C321        C338   1.471       .  S
O322       Cr327   1.971       .  S
O323       Cr327   2.012       .  S
O323        C324   1.266       .  A
C324        C426   1.472       .  S
Cr325       O328   1.770       .  S
Cr326       O328   1.773       .  S
Cr327       O328   1.772       .  S
C329        C337   1.477       .  S
C329        C330   1.402       .  A
C329        C334   1.406       .  A
C330        C331   1.397       .  A
C330        H339   1.083       .  S
C331        C332   1.404       .  A
C331        H340   1.083       .  S
C332        C335   1.474       .  S
C332        C333   1.400       .  A
C333        C334   1.396       .  A
C333        H341   1.083       .  S
C334        H342   1.083       .  S
C335        H343   1.085       .  S
C335        C336   1.343       .  D
C336        H344   1.083       .  S
C337        H345   1.087       .  S
C337        C338   1.343       .  D
C338        H346   1.087       .  S
C347        C355   1.484       .  S
C347        C348   1.401       .  A
C347        C352   1.408       .  A
C348        C349   1.400       .  A
C348        H357   1.083       .  S
C349        C350   1.409       .  A
C349        H358   1.083       .  S
C350        C353   1.485       .  S
C350        C351   1.400       .  A
C351        C352   1.397       .  A
C351        H359   1.084       .  S
C352        H360   1.083       .  S
C353        H361   1.087       .  S
C353        C354   1.343       .  D
C354        H362   1.078       .  S
C355        H363   1.086       .  S
C355        C356   1.343       .  D
C356        H364   1.087       .  S
C365        C373   1.492       .  S
C365        C366   1.400       .  A
C365        C370   1.408       .  A
C366        C367   1.402       .  A
C366        H375   1.082       .  S
C367        C368   1.413       .  A
C367        H376   1.079       .  S
C368        C371   1.494       .  S
C368        C369   1.402       .  A
C369        C370   1.395       .  A
C369        H377   1.084       .  S
C370        H378   1.079       .  S
C371        H379   1.088       .  S
C371        C372   1.345       .  D
C372        H380   1.083       .  S
C373        H381   1.085       .  S
C373        C374   1.350       .  D
C374        H382   1.073       .  S
C383        C391   1.483       .  S
C383        C384   1.402       .  A
C383        C388   1.404       .  A
C384        C385   1.401       .  A
C384        H393   1.083       .  S
C385        C386   1.411       .  A
C385        H394   1.079       .  S
C386        C389   1.491       .  S
C386        C387   1.405       .  A
C387        C388   1.395       .  A
C387        H395   1.083       .  S
C388        H396   1.083       .  S
C389        H397   1.086       .  S
C389        C390   1.346       .  D
C390        H398   1.078       .  S
C391        H399   1.087       .  S
C391        C392   1.345       .  D
C392        H400   1.086       .  S
C401        C409   1.492       .  S
C401        C402   1.403       .  A
C401        C406   1.410       .  A
C402        C403   1.400       .  A
C402        H411   1.083       .  S
C403        C404   1.410       .  A
C403        H412   1.081       .  S
C404        C407   1.491       .  S
C404        C405   1.402       .  A
C405        C406   1.398       .  A
C405        H413   1.084       .  S
C406        H414   1.080       .  S
C407        H415   1.087       .  S
C407        C408   1.344       .  D
C408        H416   1.085       .  S
C409        H417   1.080       .  S
C409        C410   1.346       .  D
C410        H418   1.082       .  S
C419        C427   1.483       .  S
C419        C420   1.401       .  A
C419        C424   1.407       .  A
C420        C421   1.398       .  A
C420        H429   1.084       .  S
C421        C422   1.411       .  A
C421        H430   1.079       .  S
C422        C425   1.487       .  S
C422        C423   1.402       .  A
C423        C424   1.393       .  A
C423        H431   1.084       .  S
C424        H432   1.080       .  S
C425        H433   1.087       .  S
C425        C426   1.344       .  D
C426        H434   1.082       .  S
C427        H435   1.078       .  S
C427        C428   1.345       .  D
C428        H436   1.083       .  S
C437        C445   1.484       .  S
C437        C438   1.400       .  A
C437        C442   1.407       .  A
C438        C439   1.397       .  A
C438        H447   1.084       .  S
C439        C440   1.410       .  A
C439        H448   1.078       .  S
C440        C443   1.491       .  S
C440        C441   1.404       .  A
C441        C442   1.400       .  A
C441        H449   1.083       .  S
C442        H450   1.083       .  S
C443        H451   1.086       .  S
C443        C444   1.349       .  D
C444        H452   1.082       .  S
C445        H453   1.087       .  S
C445        C446   1.342       .  D
C446        H454   1.086       .  S
C455        C463   1.493       .  S
C455        C456   1.400       .  A
C455        C460   1.416       .  A
C456        C457   1.395       .  A
C456        H465   1.084       .  S
C457        C458   1.406       .  A
C457        H466   1.080       .  S
C458        C461   1.486       .  S
C458        C459   1.399       .  A
C459        C460   1.404       .  A
C459        H467   1.083       .  S
C460        H468   1.081       .  S
C461        H469   1.085       .  S
C461        C462   1.342       .  D
C462        H470   1.084       .  S
C463        H471   1.087       .  S
C463        C464   1.341       .  D
C464        H472   1.085       .  S
C473        C481   1.479       .  S
C473        C474   1.402       .  A
C473        C478   1.406       .  A
C474        C475   1.397       .  A
C474        H483   1.083       .  S
C475        C476   1.405       .  A
C475        H484   1.083       .  S
C476        C479   1.480       .  S
C476        C477   1.403       .  A
C477        C478   1.400       .  A
C477        H485   1.083       .  S
C478        H486   1.083       .  S
C479        H487   1.087       .  S
C479        C480   1.344       .  D
C480        H488   1.087       .  S
C481        H489   1.083       .  S
C481        C482   1.343       .  D
C482        H490   1.081       .  S
C491        C499   1.488       .  S
C491        C492   1.402       .  A
C491        C496   1.411       .  A
C492        C493   1.394       .  A
C492        H501   1.083       .  S
C493        C494   1.408       .  A
C493        H502   1.083       .  S
C494        C497   1.485       .  S
C494        C495   1.401       .  A
C495        C496   1.400       .  A
C495        H503   1.083       .  S
C496        H504   1.081       .  S
C497        H505   1.083       .  S
C497        C498   1.343       .  D
C498        H506   1.080       .  S
C499        H507   1.087       .  S
C499        C500   1.343       .  D
C500        H508   1.084       .  S
C509        C517   1.484       .  S
C509        C510   1.401       .  A
C509        C514   1.407       .  A
C510        C511   1.398       .  A
C510        H519   1.084       .  S
C511        C512   1.404       .  A
C511        H520   1.083       .  S
C512        C515   1.491       .  S
C512        C513   1.410       .  A
C513        C514   1.402       .  A
C513        H521   1.081       .  S
C514        H522   1.083       .  S
C515        H523   1.087       .  S
C515        C516   1.347       .  D
C516        H524   1.085       .  S
C517        H525   1.087       .  S
C517        C518   1.344       .  D
C518        H526   1.081       .  S
C527        C535   1.490       .  S
C527        C528   1.404       .  A
C527        C532   1.405       .  A
C528        C529   1.405       .  A
C528        H537   1.084       .  S
C529        C530   1.410       .  A
C529        H538   1.082       .  S
C530        C533   1.488       .  S
C530        C531   1.400       .  A
C531        C532   1.396       .  A
C531        H539   1.084       .  S
C532        H540   1.078       .  S
C533        H541   1.087       .  S
C533        C534   1.342       .  D
C534        H542   1.087       .  S
C535        H543   1.077       .  S
C535        C536   1.350       .  D
C536        H544   1.079       .  S
O545       Cr563   1.983       .  S
O545        C553   1.257       .  A
O546       Cr563   2.036       .  S
O546        C547   1.273       .  A
C547        O548   1.254       .  A
C547        C736   1.478       .  S
O548       Cr564   1.956       .  S
O549       Cr564   2.005       .  S
O549        C550   1.267       .  A
C550        O551   1.267       .  A
C550        C718   1.476       .  S
O551       Cr565   1.991       .  S
O552       Cr565   2.016       .  S
O552        C553   1.265       .  A
C553        C788   1.484       .  S
O554       Cr563   2.037       .  S
O554        C562   1.275       .  A
O555       Cr563   1.966       .  S
O555        C556   1.255       .  A
C556        O557   1.265       .  A
C556        C772   1.474       .  S
O557       Cr564   2.010       .  S
O558       Cr564   1.972       .  S
O558        C559   1.256       .  A
C559        O560   1.265       .  A
C559        C752   1.471       .  S
O560       Cr565   2.009       .  S
O561       Cr565   1.972       .  S
O561        C562   1.261       .  A
C562        C806   1.482       .  S
Cr563       O566   1.772       .  S
Cr564       O566   1.770       .  S
Cr565       O566   1.772       .  S
C567        C841   1.559   1_554  S
C567        C578   1.549       .  S
C567        C700   1.536       .  S
C568       C1658   1.561       .  S
C568        C844   1.548       .  S
C568        C576   1.559       .  S
C568        C682   1.543       .  S
C569        C839   1.559       .  S
C569        C574   1.577       .  S
C569        C662   1.529       .  S
C570       C1656   1.563   1_455  S
C570        C843   1.550       .  S
C570        C754   1.533       .  S
C571        C842   1.552   1_554  S
C571       C1660   1.561   1_455  S
C571        C716   1.546       .  S
C572        C840   1.547   1_554  S
C572       C1659   1.563       .  S
C572        C573   1.568       .  S
C572        C646   1.550       .  S
C573        C848   1.551   1_554  S
C573        C734   1.528       .  S
C574       C1663   1.574   1_455  S
C574        C850   1.551       .  S
C574        C808   1.544       .  S
C575       C1662   1.573       .  S
C575        C849   1.556       .  S
C575        C626   1.543       .  S
C576        C845   1.551       .  S
C576        C770   1.530       .  S
C577        C847   1.557   1_554  S
C577       C1666   1.552       .  S
C577        C608   1.534       .  S
C578        C846   1.552   1_554  S
C578       C1665   1.556   1_455  S
C578        C790   1.536       .  S
O579       Cr597   2.018       .  S
O579        C587   1.268       .  A
O580       Cr597   1.968       .  S
O580        C581   1.258       .  A
C581        O582   1.271       .  A
C581        C680   1.481       .  S
O582       Cr598   2.026       .  S
O583       Cr598   1.980       .  S
O583        C584   1.260       .  A
C584        O585   1.263       .  A
C584        C628   1.475       .  S
O585       Cr599   2.003       .  S
O586       Cr599   1.978       .  S
O586        C587   1.262       .  A
C587        C664   1.477       .  S
O588       Cr597   1.973       .  S
O588        C596   1.256       .  A
O589       Cr597   2.014       .  S
O589        C590   1.267       .  A
C590        O591   1.254       .  A
C590        C644   1.479       .  S
O591       Cr598   1.969       .  S
O592       Cr598   2.012       .  S
O592        C593   1.270       .  A
C593        O594   1.260       .  A
C593        C610   1.470       .  S
O594       Cr599   1.969       .  S
O595       Cr599   2.012       .  S
O595        C596   1.266       .  A
C596        C698   1.474       .  S
Cr597       O600   1.771       .  S
Cr598       O600   1.776       .  S
Cr599       O600   1.774       .  S
C601        C609   1.479       .  S
C601        C602   1.403       .  A
C601        C606   1.407       .  A
C602        C603   1.398       .  A
C602        H611   1.083       .  S
C603        C604   1.405       .  A
C603        H612   1.083       .  S
C604        C607   1.474       .  S
C604        C605   1.399       .  A
C605        C606   1.395       .  A
C605        H613   1.083       .  S
C606        H614   1.083       .  S
C607        H615   1.085       .  S
C607        C608   1.342       .  D
C608        H616   1.083       .  S
C609        H617   1.087       .  S
C609        C610   1.343       .  D
C610        H618   1.087       .  S
C619        C627   1.486       .  S
C619        C620   1.403       .  A
C619        C624   1.409       .  A
C620        C621   1.401       .  A
C620        H629   1.083       .  S
C621        C622   1.408       .  A
C621        H630   1.083       .  S
C622        C625   1.483       .  S
C622        C623   1.399       .  A
C623        C624   1.397       .  A
C623        H631   1.083       .  S
C624        H632   1.083       .  S
C625        H633   1.086       .  S
C625        C626   1.343       .  D
C626        H634   1.078       .  S
C627        H635   1.087       .  S
C627        C628   1.345       .  D
C628        H636   1.086       .  S
C637        C645   1.492       .  S
C637        C638   1.402       .  A
C637        C642   1.407       .  A
C638        C639   1.403       .  A
C638        H647   1.083       .  S
C639        C640   1.413       .  A
C639        H648   1.079       .  S
C640        C643   1.495       .  S
C640        C641   1.403       .  A
C641        C642   1.396       .  A
C641        H649   1.084       .  S
C642        H650   1.081       .  S
C643        H651   1.088       .  S
C643        C644   1.345       .  D
C644        H652   1.083       .  S
C645        H653   1.085       .  S
C645        C646   1.352       .  D
C646        H654   1.074       .  S
C655        C663   1.486       .  S
C655        C656   1.402       .  A
C655        C660   1.405       .  A
C656        C657   1.400       .  A
C656        H665   1.083       .  S
C657        C658   1.410       .  A
C657        H666   1.079       .  S
C658        C661   1.491       .  S
C658        C659   1.405       .  A
C659        C660   1.397       .  A
C659        H667   1.082       .  S
C660        H668   1.082       .  S
C661        H669   1.086       .  S
C661        C662   1.346       .  D
C662        H670   1.077       .  S
C663        H671   1.086       .  S
C663        C664   1.346       .  D
C664        H672   1.086       .  S
C673        C681   1.494       .  S
C673        C674   1.404       .  A
C673        C678   1.409       .  A
C674        C675   1.403       .  A
C674        H683   1.083       .  S
C675        C676   1.411       .  A
C675        H684   1.081       .  S
C676        C679   1.494       .  S
C676        C677   1.402       .  A
C677        C678   1.398       .  A
C677        H685   1.084       .  S
C678        H686   1.080       .  S
C679        H687   1.087       .  S
C679        C680   1.345       .  D
C680        H688   1.084       .  S
C681        H689   1.081       .  S
C681        C682   1.348       .  D
C682        H690   1.082       .  S
C691        C699   1.485       .  S
C691        C692   1.402       .  A
C691        C696   1.407       .  A
C692        C693   1.400       .  A
C692        H701   1.084       .  S
C693        C694   1.410       .  A
C693        H702   1.081       .  S
C694        C697   1.485       .  S
C694        C695   1.401       .  A
C695        C696   1.394       .  A
C695        H703   1.084       .  S
C696        H704   1.080       .  S
C697        H705   1.087       .  S
C697        C698   1.344       .  D
C698        H706   1.084       .  S
C699        H707   1.077       .  S
C699        C700   1.345       .  D
C700        H708   1.084       .  S
C709        C717   1.486       .  S
C709        C710   1.400       .  A
C709        C714   1.408       .  A
C710        C711   1.398       .  A
C710        H719   1.084       .  S
C711        C712   1.410       .  A
C711        H720   1.078       .  S
C712        C715   1.493       .  S
C712        C713   1.404       .  A
C713        C714   1.401       .  A
C713        H721   1.083       .  S
C714        H722   1.083       .  S
C715        H723   1.086       .  S
C715        C716   1.350       .  D
C716        H724   1.082       .  S
C717        H725   1.087       .  S
C717        C718   1.342       .  D
C718        H726   1.087       .  S
C727        C735   1.491       .  S
C727        C728   1.399       .  A
C727        C732   1.415       .  A
C728        C729   1.393       .  A
C728        H737   1.084       .  S
C729        C730   1.407       .  A
C729        H738   1.082       .  S
C730        C733   1.487       .  S
C730        C731   1.401       .  A
C731        C732   1.406       .  A
C731        H739   1.083       .  S
C732        H740   1.081       .  S
C733        H741   1.085       .  S
C733        C734   1.343       .  D
C734        H742   1.084       .  S
C735        H743   1.087       .  S
C735        C736   1.340       .  D
C736        H744   1.085       .  S
C745        C753   1.475       .  S
C745        C746   1.400       .  A
C745        C750   1.406       .  A
C746        C747   1.395       .  A
C746        H755   1.084       .  S
C747        C748   1.406       .  A
C747        H756   1.083       .  S
C748        C751   1.477       .  S
C748        C749   1.402       .  A
C749        C750   1.398       .  A
C749        H757   1.083       .  S
C750        H758   1.083       .  S
C751        H759   1.087       .  S
C751        C752   1.342       .  D
C752        H760   1.087       .  S
C753        H761   1.083       .  S
C753        C754   1.340       .  D
C754        H762   1.081       .  S
C763        C771   1.490       .  S
C763        C764   1.403       .  A
C763        C768   1.412       .  A
C764        C765   1.396       .  A
C764        H773   1.084       .  S
C765        C766   1.409       .  A
C765        H774   1.082       .  S
C766        C769   1.484       .  S
C766        C767   1.399       .  A
C767        C768   1.398       .  A
C767        H775   1.083       .  S
C768        H776   1.080       .  S
C769        H777   1.082       .  S
C769        C770   1.341       .  D
C770        H778   1.080       .  S
C771        H779   1.087       .  S
C771        C772   1.345       .  D
C772        H780   1.083       .  S
C781        C789   1.491       .  S
C781        C782   1.403       .  A
C781        C786   1.410       .  A
C782        C783   1.399       .  A
C782        H791   1.083       .  S
C783        C784   1.404       .  A
C783        H792   1.083       .  S
C784        C787   1.491       .  S
C784        C785   1.408       .  A
C785        C786   1.404       .  A
C785        H793   1.082       .  S
C786        H794   1.082       .  S
C787        H795   1.087       .  S
C787        C788   1.349       .  D
C788        H796   1.085       .  S
C789        H797   1.087       .  S
C789        C790   1.347       .  D
C790        H798   1.080       .  S
C799        C807   1.494       .  S
C799        C800   1.405       .  A
C799        C804   1.408       .  A
C800        C801   1.406       .  A
C800        H809   1.084       .  S
C801        C802   1.409       .  A
C801        H810   1.082       .  S
C802        C805   1.488       .  S
C802        C803   1.400       .  A
C803        C804   1.397       .  A
C803        H811   1.084       .  S
C804        H812   1.080       .  S
C805        H813   1.087       .  S
C805        C806   1.343       .  D
C806        H814   1.087       .  S
C807        H815   1.078       .  S
C807        C808   1.350       .  D
C808        H816   1.077       .  S
O817       Cr835   1.977       .  S
O817        C825   1.256       .  A
O818       Cr835   2.037       .  S
O818        C819   1.272       .  A
C819        O820   1.254       .  A
C819       C1008   1.480       .  S
O820       Cr836   1.957       .  S
O821       Cr836   2.004       .  S
O821        C822   1.266       .  A
C822        O823   1.266       .  A
C822        C990   1.473       .  S
O823       Cr837   1.986       .  S
O824       Cr837   2.019       .  S
O824        C825   1.266       .  A
C825       C1060   1.480       .  S
O826       Cr835   2.036       .  S
O826        C834   1.275       .  A
O827       Cr835   1.968       .  S
O827        C828   1.255       .  A
C828        O829   1.267       .  A
C828       C1044   1.479       .  S
O829       Cr836   2.014       .  S
O830       Cr836   1.973       .  S
O830        C831   1.257       .  A
C831        O832   1.266       .  A
C831       C1024   1.473       .  S
O832       Cr837   2.012       .  S
O833       Cr837   1.969       .  S
O833        C834   1.260       .  A
C834       C1078   1.480       .  S
Cr835       O838   1.773       .  S
Cr836       O838   1.769       .  S
Cr837       O838   1.773       .  S
C839        C850   1.548       .  S
C839        C972   1.539       .  S
C840       C1930   1.563       .  S
C840        C848   1.562       .  S
C840        C954   1.543       .  S
C841        C846   1.575       .  S
C841        C934   1.536       .  S
C842       C1928   1.563   1_455  S
C842       C1026   1.538       .  S
C843       C1932   1.561   1_455  S
C843        C988   1.535       .  S
C844       C1931   1.564       .  S
C844        C845   1.569       .  S
C844        C918   1.542       .  S
C845       C1006   1.532       .  S
C846       C1935   1.572   1_455  S
C846       C1080   1.539       .  S
C847       C1934   1.571       .  S
C847        C898   1.541       .  S
C848       C1042   1.534       .  S
C849       C1938   1.549       .  S
C849        C880   1.533       .  S
C850       C1937   1.552   1_455  S
C850       C1062   1.532       .  S
O851       Cr869   2.019       .  S
O851        C859   1.269       .  A
O852       Cr869   1.970       .  S
O852        C853   1.259       .  A
C853        O854   1.271       .  A
C853        C952   1.483       .  S
O854       Cr870   2.028       .  S
O855       Cr870   1.981       .  S
O855        C856   1.262       .  A
C856        O857   1.262       .  A
C856        C900   1.473       .  S
O857       Cr871   1.998       .  S
O858       Cr871   1.979       .  S
O858        C859   1.262       .  A
C859        C936   1.479       .  S
O860       Cr869   1.976       .  S
O860        C868   1.257       .  A
O861       Cr869   2.011       .  S
O861        C862   1.266       .  A
C862        O863   1.255       .  A
C862        C916   1.478       .  S
O863       Cr870   1.972       .  S
O864       Cr870   2.007       .  S
O864        C865   1.269       .  A
C865        O866   1.260       .  A
C865        C882   1.470       .  S
O866       Cr871   1.972       .  S
O867       Cr871   2.011       .  S
O867        C868   1.266       .  A
C868        C970   1.476       .  S
Cr869       O872   1.770       .  S
Cr870       O872   1.776       .  S
Cr871       O872   1.775       .  S
C873        C881   1.473       .  S
C873        C874   1.401       .  A
C873        C878   1.405       .  A
C874        C875   1.395       .  A
C874        H883   1.083       .  S
C875        C876   1.405       .  A
C875        H884   1.083       .  S
C876        C879   1.474       .  S
C876        C877   1.401       .  A
C877        C878   1.396       .  A
C877        H885   1.084       .  S
C878        H886   1.083       .  S
C879        H887   1.086       .  S
C879        C880   1.343       .  D
C880        H888   1.081       .  S
C881        H889   1.087       .  S
C881        C882   1.342       .  D
C882        H890   1.087       .  S
C891        C899   1.481       .  S
C891        C892   1.400       .  A
C891        C896   1.409       .  A
C892        C893   1.397       .  A
C892        H901   1.083       .  S
C893        C894   1.408       .  A
C893        H902   1.083       .  S
C894        C897   1.482       .  S
C894        C895   1.401       .  A
C895        C896   1.398       .  A
C895        H903   1.084       .  S
C896        H904   1.083       .  S
C897        H905   1.087       .  S
C897        C898   1.344       .  D
C898        H906   1.078       .  S
C899        H907   1.087       .  S
C899        C900   1.341       .  D
C900        H908   1.087       .  S
C909        C917   1.488       .  S
C909        C910   1.401       .  A
C909        C914   1.406       .  A
C910        C911   1.403       .  A
C910        H919   1.082       .  S
C911        C912   1.412       .  A
C911        H920   1.080       .  S
C912        C915   1.489       .  S
C912        C913   1.402       .  A
C913        C914   1.393       .  A
C913        H921   1.084       .  S
C914        H922   1.080       .  S
C915        H923   1.088       .  S
C915        C916   1.344       .  D
C916        H924   1.084       .  S
C917        H925   1.085       .  S
C917        C918   1.350       .  D
C918        H926   1.074       .  S
C927        C935   1.490       .  S
C927        C928   1.404       .  A
C927        C932   1.406       .  A
C928        C929   1.403       .  A
C928        H937   1.083       .  S
C929        C930   1.410       .  A
C929        H938   1.079       .  S
C930        C933   1.494       .  S
C930        C931   1.405       .  A
C931        C932   1.398       .  A
C931        H939   1.082       .  S
C932        H940   1.082       .  S
C933        H941   1.086       .  S
C933        C934   1.349       .  D
C934        H942   1.078       .  S
C935        H943   1.087       .  S
C935        C936   1.348       .  D
C936        H944   1.085       .  S
C945        C953   1.495       .  S
C945        C946   1.404       .  A
C945        C950   1.410       .  A
C946        C947   1.402       .  A
C946        H955   1.084       .  S
C947        C948   1.410       .  A
C947        H956   1.081       .  S
C948        C951   1.495       .  S
C948        C949   1.403       .  A
C949        C950   1.400       .  A
C949        H957   1.084       .  S
C950        H958   1.080       .  S
C951        H959   1.087       .  S
C951        C952   1.347       .  D
C952        H960   1.085       .  S
C953        H961   1.080       .  S
C953        C954   1.349       .  D
C954        H962   1.082       .  S
C963        C971   1.486       .  S
C963        C964   1.401       .  A
C963        C968   1.407       .  A
C964        C965   1.400       .  A
C964        H973   1.084       .  S
C965        C966   1.410       .  A
C965        H974   1.080       .  S
C966        C969   1.489       .  S
C966        C967   1.403       .  A
C967        C968   1.396       .  A
C967        H975   1.084       .  S
C968        H976   1.080       .  S
C969        H977   1.087       .  S
C969        C970   1.346       .  D
C970        H978   1.083       .  S
C971        H979   1.078       .  S
C971        C972   1.345       .  D
C972        H980   1.084       .  S
C981        C989   1.481       .  S
C981        C982   1.398       .  A
C981        C986   1.408       .  A
C982        C983   1.395       .  A
C982        H991   1.083       .  S
C983        C984   1.409       .  A
C983        H992   1.077       .  S
C984        C987   1.489       .  S
C984        C985   1.403       .  A
C985        C986   1.400       .  A
C985        H993   1.083       .  S
C986        H994   1.083       .  S
C987        H995   1.086       .  S
C987        C988   1.348       .  D
C988        H996   1.082       .  S
C989        H997   1.087       .  S
C989        C990   1.341       .  D
C990        H998   1.087       .  S
C999       C1007   1.495       .  S
C999       C1000   1.400       .  A
C999       C1004   1.416       .  A
C1000      C1001   1.395       .  A
C1000      H1009   1.084       .  S
C1001      C1002   1.408       .  A
C1001      H1010   1.081       .  S
C1002      C1005   1.489       .  S
C1002      C1003   1.400       .  A
C1003      C1004   1.405       .  A
C1003      H1011   1.083       .  S
C1004      H1012   1.080       .  S
C1005      H1013   1.086       .  S
C1005      C1006   1.344       .  D
C1006      H1014   1.082       .  S
C1007      H1015   1.087       .  S
C1007      C1008   1.342       .  D
C1008      H1016   1.084       .  S
C1017      C1025   1.480       .  S
C1017      C1018   1.402       .  A
C1017      C1022   1.406       .  A
C1018      C1019   1.397       .  A
C1018      H1027   1.083       .  S
C1019      C1020   1.406       .  A
C1019      H1028   1.083       .  S
C1020      C1023   1.480       .  S
C1020      C1021   1.402       .  A
C1021      C1022   1.400       .  A
C1021      H1029   1.083       .  S
C1022      H1030   1.083       .  S
C1023      H1031   1.087       .  S
C1023      C1024   1.343       .  D
C1024      H1032   1.087       .  S
C1025      H1033   1.083       .  S
C1025      C1026   1.342       .  D
C1026      H1034   1.081       .  S
C1035      C1043   1.493       .  S
C1035      C1036   1.403       .  A
C1035      C1040   1.412       .  A
C1036      C1037   1.397       .  A
C1036      H1045   1.084       .  S
C1037      C1038   1.409       .  A
C1037      H1046   1.082       .  S
C1038      C1041   1.490       .  S
C1038      C1039   1.402       .  A
C1039      C1040   1.402       .  A
C1039      H1047   1.083       .  S
C1040      H1048   1.080       .  S
C1041      H1049   1.084       .  S
C1041      C1042   1.345       .  D
C1042      H1050   1.080       .  S
C1043      H1051   1.087       .  S
C1043      C1044   1.345       .  D
C1044      H1052   1.084       .  S
C1053      C1061   1.485       .  S
C1053      C1054   1.401       .  A
C1053      C1058   1.407       .  A
C1054      C1055   1.398       .  A
C1054      H1063   1.084       .  S
C1055      C1056   1.405       .  A
C1055      H1064   1.083       .  S
C1056      C1059   1.492       .  S
C1056      C1057   1.410       .  A
C1057      C1058   1.402       .  A
C1057      H1065   1.081       .  S
C1058      H1066   1.083       .  S
C1059      H1067   1.087       .  S
C1059      C1060   1.348       .  D
C1060      H1068   1.084       .  S
C1061      H1069   1.087       .  S
C1061      C1062   1.345       .  D
C1062      H1070   1.081       .  S
C1071      C1079   1.492       .  S
C1071      C1072   1.404       .  A
C1071      C1076   1.409       .  A
C1072      C1073   1.405       .  A
C1072      H1081   1.084       .  S
C1073      C1074   1.409       .  A
C1073      H1082   1.083       .  S
C1074      C1077   1.485       .  S
C1074      C1075   1.399       .  A
C1075      C1076   1.396       .  A
C1075      H1083   1.084       .  S
C1076      H1084   1.080       .  S
C1077      H1085   1.087       .  S
C1077      C1078   1.342       .  D
C1078      H1086   1.087       .  S
C1079      H1087   1.076       .  S
C1079      C1080   1.349       .  D
C1080      H1088   1.074       .  S
O1089     Cr1107   1.982       .  S
O1089      C1097   1.256       .  A
O1090     Cr1107   2.038       .  S
O1090      C1091   1.273       .  A
C1091      O1092   1.254       .  A
C1091      C1280   1.482       .  S
O1092     Cr1108   1.955       .  S
O1093     Cr1108   2.005       .  S
O1093      C1094   1.267       .  A
C1094      O1095   1.266       .  A
C1094      C1262   1.473       .  S
O1095     Cr1109   1.983       .  S
O1096     Cr1109   2.012       .  S
O1096      C1097   1.263       .  A
C1097      C1332   1.482       .  S
O1098     Cr1107   2.037       .  S
O1098      C1106   1.276       .  A
O1099     Cr1107   1.972       .  S
O1099      C1100   1.256       .  A
C1100      O1101   1.265       .  A
C1100      C1316   1.478       .  S
O1101     Cr1108   2.006       .  S
O1102     Cr1108   1.974       .  S
O1102      C1103   1.256       .  A
C1103      O1104   1.264       .  A
C1103      C1296   1.473       .  S
O1104     Cr1109   2.011       .  S
O1105     Cr1109   1.969       .  S
O1105      C1106   1.261       .  A
C1106      C1350   1.480       .  S
Cr1107     O1110   1.775       .  S
Cr1108     O1110   1.772       .  S
Cr1109     O1110   1.775       .  S
C1111      C1385   1.558   1_554  S
C1111      C1659   1.573   1_545  S
C1111      C1122   1.545       .  S
C1111      C1244   1.536       .  S
C1112      C1388   1.548       .  S
C1112      C1120   1.560       .  S
C1112      C1226   1.541       .  S
C1113      C1383   1.557       .  S
C1113      C1658   1.556   1_545  S
C1113      C1118   1.575       .  S
C1113      C1206   1.529       .  S
C1114      C1657   1.555       .  S
C1114      C1387   1.552       .  S
C1114      C1298   1.534       .  S
C1115      C1655   1.572       .  S
C1115      C1386   1.551   1_554  S
C1115      C1260   1.538       .  S
C1116      C1384   1.551   1_554  S
C1116      C1117   1.569       .  S
C1116      C1190   1.539       .  S
C1117      C1392   1.551   1_554  S
C1117      C1665   1.566       .  S
C1117      C1278   1.540       .  S
C1118      C1394   1.552       .  S
C1118      C1352   1.539       .  S
C1119      C1664   1.558   1_545  S
C1119      C1393   1.557       .  S
C1119      C1170   1.538       .  S
C1120      C1389   1.552       .  S
C1120      C1663   1.559       .  S
C1120      C1314   1.535       .  S
C1121      C1661   1.563   1_545  S
C1121      C1391   1.557   1_554  S
C1121      C1152   1.533       .  S
C1122      C1390   1.552   1_554  S
C1122      C1334   1.533       .  S
O1123     Cr1141   2.015       .  S
O1123      C1131   1.267       .  A
O1124     Cr1141   1.966       .  S
O1124      C1125   1.258       .  A
C1125      O1126   1.271       .  A
C1125      C1224   1.480       .  S
O1126     Cr1142   2.027       .  S
O1127     Cr1142   1.978       .  S
O1127      C1128   1.260       .  A
C1128      O1129   1.262       .  A
C1128      C1172   1.473       .  S
O1129     Cr1143   2.001       .  S
O1130     Cr1143   1.982       .  S
O1130      C1131   1.262       .  A
C1131      C1208   1.477       .  S
O1132     Cr1141   1.970       .  S
O1132      C1140   1.255       .  A
O1133     Cr1141   2.009       .  S
O1133      C1134   1.265       .  A
C1134      O1135   1.254       .  A
C1134      C1188   1.474       .  S
O1135     Cr1142   1.968       .  S
O1136     Cr1142   2.015       .  S
O1136      C1137   1.270       .  A
C1137      O1138   1.261       .  A
C1137      C1154   1.475       .  S
O1138     Cr1143   1.973       .  S
O1139     Cr1143   2.014       .  S
O1139      C1140   1.266       .  A
C1140      C1242   1.473       .  S
Cr1141     O1144   1.772       .  S
Cr1142     O1144   1.776       .  S
Cr1143     O1144   1.774       .  S
C1145      C1153   1.481       .  S
C1145      C1146   1.403       .  A
C1145      C1150   1.406       .  A
C1146      C1147   1.399       .  A
C1146      H1155   1.083       .  S
C1147      C1148   1.406       .  A
C1147      H1156   1.083       .  S
C1148      C1151   1.477       .  S
C1148      C1149   1.400       .  A
C1149      C1150   1.397       .  A
C1149      H1157   1.083       .  S
C1150      H1158   1.083       .  S
C1151      H1159   1.086       .  S
C1151      C1152   1.343       .  D
C1152      H1160   1.082       .  S
C1153      H1161   1.087       .  S
C1153      C1154   1.344       .  D
C1154      H1162   1.087       .  S
C1163      C1171   1.482       .  S
C1163      C1164   1.401       .  A
C1163      C1168   1.408       .  A
C1164      C1165   1.398       .  A
C1164      H1173   1.083       .  S
C1165      C1166   1.408       .  A
C1165      H1174   1.083       .  S
C1166      C1169   1.481       .  S
C1166      C1167   1.400       .  A
C1167      C1168   1.397       .  A
C1167      H1175   1.084       .  S
C1168      H1176   1.083       .  S
C1169      H1177   1.087       .  S
C1169      C1170   1.343       .  D
C1170      H1178   1.078       .  S
C1171      H1179   1.087       .  S
C1171      C1172   1.343       .  D
C1172      H1180   1.087       .  S
C1181      C1189   1.489       .  S
C1181      C1182   1.401       .  A
C1181      C1186   1.408       .  A
C1182      C1183   1.403       .  A
C1182      H1191   1.083       .  S
C1183      C1184   1.412       .  A
C1183      H1192   1.080       .  S
C1184      C1187   1.488       .  S
C1184      C1185   1.400       .  A
C1185      C1186   1.393       .  A
C1185      H1193   1.084       .  S
C1186      H1194   1.081       .  S
C1187      H1195   1.088       .  S
C1187      C1188   1.343       .  D
C1188      H1196   1.084       .  S
C1189      H1197   1.085       .  S
C1189      C1190   1.347       .  D
C1190      H1198   1.079       .  S
C1199      C1207   1.487       .  S
C1199      C1200   1.402       .  A
C1199      C1204   1.405       .  A
C1200      C1201   1.401       .  A
C1200      H1209   1.083       .  S
C1201      C1202   1.411       .  A
C1201      H1210   1.079       .  S
C1202      C1205   1.491       .  S
C1202      C1203   1.404       .  A
C1203      C1204   1.396       .  A
C1203      H1211   1.083       .  S
C1204      H1212   1.083       .  S
C1205      H1213   1.086       .  S
C1205      C1206   1.346       .  D
C1206      H1214   1.077       .  S
C1207      H1215   1.086       .  S
C1207      C1208   1.346       .  D
C1208      H1216   1.086       .  S
C1217      C1225   1.492       .  S
C1217      C1218   1.404       .  A
C1217      C1222   1.409       .  A
C1218      C1219   1.402       .  A
C1218      H1227   1.083       .  S
C1219      C1220   1.411       .  A
C1219      H1228   1.081       .  S
C1220      C1223   1.493       .  S
C1220      C1221   1.402       .  A
C1221      C1222   1.398       .  A
C1221      H1229   1.083       .  S
C1222      H1230   1.080       .  S
C1223      H1231   1.087       .  S
C1223      C1224   1.345       .  D
C1224      H1232   1.085       .  S
C1225      H1233   1.080       .  S
C1225      C1226   1.347       .  D
C1226      H1234   1.082       .  S
C1235      C1243   1.484       .  S
C1235      C1236   1.401       .  A
C1235      C1240   1.407       .  A
C1236      C1237   1.399       .  A
C1236      H1245   1.084       .  S
C1237      C1238   1.411       .  A
C1237      H1246   1.080       .  S
C1238      C1241   1.485       .  S
C1238      C1239   1.402       .  A
C1239      C1240   1.394       .  A
C1239      H1247   1.084       .  S
C1240      H1248   1.081       .  S
C1241      H1249   1.087       .  S
C1241      C1242   1.344       .  D
C1242      H1250   1.084       .  S
C1243      H1251   1.079       .  S
C1243      C1244   1.345       .  D
C1244      H1252   1.084       .  S
C1253      C1261   1.480       .  S
C1253      C1254   1.398       .  A
C1253      C1258   1.407       .  A
C1254      C1255   1.394       .  A
C1254      H1263   1.084       .  S
C1255      C1256   1.409       .  A
C1255      H1264   1.077       .  S
C1256      C1259   1.491       .  S
C1256      C1257   1.405       .  A
C1257      C1258   1.401       .  A
C1257      H1265   1.083       .  S
C1258      H1266   1.083       .  S
C1259      H1267   1.086       .  S
C1259      C1260   1.350       .  D
C1260      H1268   1.081       .  S
C1261      H1269   1.087       .  S
C1261      C1262   1.341       .  D
C1262      H1270   1.087       .  S
C1271      C1279   1.497       .  S
C1271      C1272   1.401       .  A
C1271      C1276   1.416       .  A
C1272      C1273   1.396       .  A
C1272      H1281   1.084       .  S
C1273      C1274   1.408       .  A
C1273      H1282   1.082       .  S
C1274      C1277   1.493       .  S
C1274      C1275   1.400       .  A
C1275      C1276   1.406       .  A
C1275      H1283   1.083       .  S
C1276      H1284   1.080       .  S
C1277      H1285   1.086       .  S
C1277      C1278   1.347       .  D
C1278      H1286   1.076       .  S
C1279      H1287   1.087       .  S
C1279      C1280   1.342       .  D
C1280      H1288   1.084       .  S
C1289      C1297   1.476       .  S
C1289      C1290   1.400       .  A
C1289      C1294   1.406       .  A
C1290      C1291   1.395       .  A
C1290      H1299   1.083       .  S
C1291      C1292   1.406       .  A
C1291      H1300   1.083       .  S
C1292      C1295   1.481       .  S
C1292      C1293   1.403       .  A
C1293      C1294   1.401       .  A
C1293      H1301   1.083       .  S
C1294      H1302   1.083       .  S
C1295      H1303   1.087       .  S
C1295      C1296   1.344       .  D
C1296      H1304   1.087       .  S
C1297      H1305   1.083       .  S
C1297      C1298   1.340       .  D
C1298      H1306   1.081       .  S
C1307      C1315   1.490       .  S
C1307      C1308   1.403       .  A
C1307      C1312   1.410       .  A
C1308      C1309   1.396       .  A
C1308      H1317   1.084       .  S
C1309      C1310   1.408       .  A
C1309      H1318   1.082       .  S
C1310      C1313   1.487       .  S
C1310      C1311   1.401       .  A
C1311      C1312   1.401       .  A
C1311      H1319   1.083       .  S
C1312      H1320   1.081       .  S
C1313      H1321   1.082       .  S
C1313      C1314   1.344       .  D
C1314      H1322   1.080       .  S
C1315      H1323   1.087       .  S
C1315      C1316   1.346       .  D
C1316      H1324   1.084       .  S
C1325      C1333   1.485       .  S
C1325      C1326   1.401       .  A
C1325      C1330   1.407       .  A
C1326      C1327   1.399       .  A
C1326      H1335   1.083       .  S
C1327      C1328   1.405       .  A
C1327      H1336   1.083       .  S
C1328      C1331   1.491       .  S
C1328      C1329   1.409       .  A
C1329      C1330   1.402       .  A
C1329      H1337   1.081       .  S
C1330      H1338   1.083       .  S
C1331      H1339   1.087       .  S
C1331      C1332   1.349       .  D
C1332      H1340   1.085       .  S
C1333      H1341   1.087       .  S
C1333      C1334   1.345       .  D
C1334      H1342   1.081       .  S
C1343      C1351   1.490       .  S
C1343      C1344   1.403       .  A
C1343      C1348   1.407       .  A
C1344      C1345   1.404       .  A
C1344      H1353   1.084       .  S
C1345      C1346   1.410       .  A
C1345      H1354   1.082       .  S
C1346      C1349   1.489       .  S
C1346      C1347   1.401       .  A
C1347      C1348   1.398       .  A
C1347      H1355   1.084       .  S
C1348      H1356   1.080       .  S
C1349      H1357   1.087       .  S
C1349      C1350   1.344       .  D
C1350      H1358   1.087       .  S
C1351      H1359   1.077       .  S
C1351      C1352   1.348       .  D
C1352      H1360   1.078       .  S
O1361     Cr1379   1.980       .  S
O1361      C1369   1.257       .  A
O1362     Cr1379   2.037       .  S
O1362      C1363   1.272       .  A
C1363      O1364   1.253       .  A
C1363      C1552   1.480       .  S
O1364     Cr1380   1.955       .  S
O1365     Cr1380   2.006       .  S
O1365      C1366   1.267       .  A
C1366      O1367   1.266       .  A
C1366      C1534   1.475       .  S
O1367     Cr1381   1.986       .  S
O1368     Cr1381   2.013       .  S
O1368      C1369   1.264       .  A
C1369      C1604   1.481       .  S
O1370     Cr1379   2.035       .  S
O1370      C1378   1.275       .  A
O1371     Cr1379   1.967       .  S
O1371      C1372   1.255       .  A
C1372      O1373   1.266       .  A
C1372      C1588   1.477       .  S
O1373     Cr1380   2.012       .  S
O1374     Cr1380   1.971       .  S
O1374      C1375   1.255       .  A
C1375      O1376   1.265       .  A
C1375      C1568   1.472       .  S
O1376     Cr1381   2.011       .  S
O1377     Cr1381   1.973       .  S
O1377      C1378   1.262       .  A
C1378      C1622   1.483       .  S
Cr1379     O1382   1.774       .  S
Cr1380     O1382   1.772       .  S
Cr1381     O1382   1.775       .  S
C1383      C1931   1.570   1_545  S
C1383      C1394   1.546       .  S
C1383      C1516   1.536       .  S
C1384      C1392   1.558       .  S
C1384      C1498   1.537       .  S
C1385      C1930   1.557   1_545  S
C1385      C1390   1.577       .  S
C1385      C1478   1.532       .  S
C1386      C1929   1.554       .  S
C1386      C1570   1.533       .  S
C1387      C1927   1.573       .  S
C1387      C1532   1.539       .  S
C1388      C1389   1.571       .  S
C1388      C1462   1.545       .  S
C1389      C1937   1.566       .  S
C1389      C1550   1.533       .  S
C1390      C1624   1.544       .  S
C1391      C1936   1.561   1_545  S
C1391      C1442   1.540       .  S
C1392      C1935   1.558       .  S
C1392      C1586   1.536       .  S
C1393      C1933   1.568   1_545  S
C1393      C1424   1.538       .  S
C1394      C1606   1.532       .  S
O1395     Cr1413   2.019       .  S
O1395      C1403   1.268       .  A
O1396     Cr1413   1.965       .  S
O1396      C1397   1.256       .  A
C1397      O1398   1.270       .  A
C1397      C1496   1.478       .  S
O1398     Cr1414   2.025       .  S
O1399     Cr1414   1.979       .  S
O1399      C1400   1.260       .  A
C1400      O1401   1.263       .  A
C1400      C1444   1.473       .  S
O1401     Cr1415   2.003       .  S
O1402     Cr1415   1.981       .  S
O1402      C1403   1.262       .  A
C1403      C1480   1.478       .  S
O1404     Cr1413   1.971       .  S
O1404      C1412   1.255       .  A
O1405     Cr1413   2.017       .  S
O1405      C1406   1.268       .  A
C1406      O1407   1.255       .  A
C1406      C1460   1.479       .  S
O1407     Cr1414   1.967       .  S
O1408     Cr1414   2.014       .  S
O1408      C1409   1.269       .  A
C1409      O1410   1.262       .  A
C1409      C1426   1.475       .  S
O1410     Cr1415   1.976       .  S
O1411     Cr1415   2.014       .  S
O1411      C1412   1.267       .  A
C1412      C1514   1.474       .  S
Cr1413     O1416   1.770       .  S
Cr1414     O1416   1.775       .  S
Cr1415     O1416   1.772       .  S
C1417      C1425   1.480       .  S
C1417      C1418   1.403       .  A
C1417      C1422   1.406       .  A
C1418      C1419   1.399       .  A
C1418      H1427   1.083       .  S
C1419      C1420   1.405       .  A
C1419      H1428   1.083       .  S
C1420      C1423   1.477       .  S
C1420      C1421   1.401       .  A
C1421      C1422   1.397       .  A
C1421      H1429   1.084       .  S
C1422      H1430   1.083       .  S
C1423      H1431   1.085       .  S
C1423      C1424   1.344       .  D
C1424      H1432   1.082       .  S
C1425      H1433   1.087       .  S
C1425      C1426   1.344       .  D
C1426      H1434   1.087       .  S
C1435      C1443   1.483       .  S
C1435      C1436   1.401       .  A
C1435      C1440   1.409       .  A
C1436      C1437   1.399       .  A
C1436      H1445   1.083       .  S
C1437      C1438   1.408       .  A
C1437      H1446   1.083       .  S
C1438      C1441   1.482       .  S
C1438      C1439   1.400       .  A
C1439      C1440   1.397       .  A
C1439      H1447   1.083       .  S
C1440      H1448   1.083       .  S
C1441      H1449   1.086       .  S
C1441      C1442   1.343       .  D
C1442      H1450   1.078       .  S
C1443      H1451   1.087       .  S
C1443      C1444   1.343       .  D
C1444      H1452   1.087       .  S
C1453      C1461   1.491       .  S
C1453      C1454   1.401       .  A
C1453      C1458   1.407       .  A
C1454      C1455   1.403       .  A
C1454      H1463   1.082       .  S
C1455      C1456   1.413       .  A
C1455      H1464   1.079       .  S
C1456      C1459   1.493       .  S
C1456      C1457   1.402       .  A
C1457      C1458   1.394       .  A
C1457      H1465   1.083       .  S
C1458      H1466   1.081       .  S
C1459      H1467   1.087       .  S
C1459      C1460   1.344       .  D
C1460      H1468   1.083       .  S
C1461      H1469   1.086       .  S
C1461      C1462   1.351       .  D
C1462      H1470   1.074       .  S
C1471      C1479   1.486       .  S
C1471      C1472   1.403       .  A
C1471      C1476   1.405       .  A
C1472      C1473   1.402       .  A
C1472      H1481   1.083       .  S
C1473      C1474   1.410       .  A
C1473      H1482   1.080       .  S
C1474      C1477   1.491       .  S
C1474      C1475   1.404       .  A
C1475      C1476   1.396       .  A
C1475      H1483   1.083       .  S
C1476      H1484   1.083       .  S
C1477      H1485   1.085       .  S
C1477      C1478   1.345       .  D
C1478      H1486   1.080       .  S
C1479      H1487   1.086       .  S
C1479      C1480   1.346       .  D
C1480      H1488   1.086       .  S
C1489      C1497   1.492       .  S
C1489      C1490   1.402       .  A
C1489      C1494   1.410       .  A
C1490      C1491   1.402       .  A
C1490      H1499   1.083       .  S
C1491      C1492   1.412       .  A
C1491      H1500   1.081       .  S
C1492      C1495   1.493       .  S
C1492      C1493   1.402       .  A
C1493      C1494   1.397       .  A
C1493      H1501   1.084       .  S
C1494      H1502   1.079       .  S
C1495      H1503   1.087       .  S
C1495      C1496   1.345       .  D
C1496      H1504   1.084       .  S
C1497      H1505   1.082       .  S
C1497      C1498   1.345       .  D
C1498      H1506   1.082       .  S
C1507      C1515   1.483       .  S
C1507      C1508   1.402       .  A
C1507      C1512   1.406       .  A
C1508      C1509   1.401       .  A
C1508      H1517   1.084       .  S
C1509      C1510   1.410       .  A
C1509      H1518   1.081       .  S
C1510      C1513   1.484       .  S
C1510      C1511   1.401       .  A
C1511      C1512   1.393       .  A
C1511      H1519   1.084       .  S
C1512      H1520   1.080       .  S
C1513      H1521   1.088       .  S
C1513      C1514   1.344       .  D
C1514      H1522   1.085       .  S
C1515      H1523   1.078       .  S
C1515      C1516   1.345       .  D
C1516      H1524   1.084       .  S
C1525      C1533   1.484       .  S
C1525      C1526   1.399       .  A
C1525      C1530   1.408       .  A
C1526      C1527   1.397       .  A
C1526      H1535   1.084       .  S
C1527      C1528   1.410       .  A
C1527      H1536   1.078       .  S
C1528      C1531   1.490       .  S
C1528      C1529   1.404       .  A
C1529      C1530   1.400       .  A
C1529      H1537   1.083       .  S
C1530      H1538   1.083       .  S
C1531      H1539   1.086       .  S
C1531      C1532   1.349       .  D
C1532      H1540   1.082       .  S
C1533      H1541   1.087       .  S
C1533      C1534   1.342       .  D
C1534      H1542   1.086       .  S
C1543      C1551   1.496       .  S
C1543      C1544   1.401       .  A
C1543      C1548   1.416       .  A
C1544      C1545   1.396       .  A
C1544      H1553   1.084       .  S
C1545      C1546   1.407       .  A
C1545      H1554   1.082       .  S
C1546      C1549   1.488       .  S
C1546      C1547   1.400       .  A
C1547      C1548   1.405       .  A
C1547      H1555   1.084       .  S
C1548      H1556   1.080       .  S
C1549      H1557   1.086       .  S
C1549      C1550   1.344       .  D
C1550      H1558   1.082       .  S
C1551      H1559   1.087       .  S
C1551      C1552   1.342       .  D
C1552      H1560   1.084       .  S
C1561      C1569   1.474       .  S
C1561      C1562   1.400       .  A
C1561      C1566   1.405       .  A
C1562      C1563   1.395       .  A
C1562      H1571   1.083       .  S
C1563      C1564   1.406       .  A
C1563      H1572   1.083       .  S
C1564      C1567   1.478       .  S
C1564      C1565   1.402       .  A
C1565      C1566   1.399       .  A
C1565      H1573   1.083       .  S
C1566      H1574   1.083       .  S
C1567      H1575   1.087       .  S
C1567      C1568   1.342       .  D
C1568      H1576   1.087       .  S
C1569      H1577   1.083       .  S
C1569      C1570   1.340       .  D
C1570      H1578   1.081       .  S
C1579      C1587   1.490       .  S
C1579      C1580   1.402       .  A
C1579      C1584   1.411       .  A
C1580      C1581   1.397       .  A
C1580      H1589   1.084       .  S
C1581      C1582   1.409       .  A
C1581      H1590   1.081       .  S
C1582      C1585   1.488       .  S
C1582      C1583   1.401       .  A
C1583      C1584   1.400       .  A
C1583      H1591   1.083       .  S
C1584      H1592   1.081       .  S
C1585      H1593   1.082       .  S
C1585      C1586   1.344       .  D
C1586      H1594   1.080       .  S
C1587      H1595   1.087       .  S
C1587      C1588   1.345       .  D
C1588      H1596   1.084       .  S
C1597      C1605   1.485       .  S
C1597      C1598   1.402       .  A
C1597      C1602   1.407       .  A
C1598      C1599   1.398       .  A
C1598      H1607   1.084       .  S
C1599      C1600   1.405       .  A
C1599      H1608   1.083       .  S
C1600      C1603   1.490       .  S
C1600      C1601   1.409       .  A
C1601      C1602   1.401       .  A
C1601      H1609   1.081       .  S
C1602      H1610   1.083       .  S
C1603      H1611   1.087       .  S
C1603      C1604   1.349       .  D
C1604      H1612   1.085       .  S
C1605      H1613   1.087       .  S
C1605      C1606   1.345       .  D
C1606      H1614   1.081       .  S
C1615      C1623   1.492       .  S
C1615      C1616   1.405       .  A
C1615      C1620   1.407       .  A
C1616      C1617   1.406       .  A
C1616      H1625   1.084       .  S
C1617      C1618   1.409       .  A
C1617      H1626   1.082       .  S
C1618      C1621   1.488       .  S
C1618      C1619   1.400       .  A
C1619      C1620   1.398       .  A
C1619      H1627   1.084       .  S
C1620      H1628   1.080       .  S
C1621      H1629   1.087       .  S
C1621      C1622   1.344       .  D
C1622      H1630   1.087       .  S
C1623      H1631   1.077       .  S
C1623      C1624   1.351       .  D
C1624      H1632   1.077       .  S
O1633     Cr1651   1.983       .  S
O1633      C1641   1.257       .  A
O1634     Cr1651   2.038       .  S
O1634      C1635   1.272       .  A
C1635      O1636   1.253       .  A
C1635      C1824   1.483       .  S
O1636     Cr1652   1.956       .  S
O1637     Cr1652   2.006       .  S
O1637      C1638   1.268       .  A
C1638      O1639   1.266       .  A
C1638      C1806   1.472       .  S
O1639     Cr1653   1.980       .  S
O1640     Cr1653   2.018       .  S
O1640      C1641   1.264       .  A
C1641      C1876   1.484       .  S
O1642     Cr1651   2.037       .  S
O1642      C1650   1.275       .  A
O1643     Cr1651   1.971       .  S
O1643      C1644   1.256       .  A
C1644      O1645   1.266       .  A
C1644      C1860   1.480       .  S
O1645     Cr1652   2.010       .  S
O1646     Cr1652   1.974       .  S
O1646      C1647   1.255       .  A
C1647      O1648   1.264       .  A
C1647      C1840   1.474       .  S
O1648     Cr1653   2.010       .  S
O1649     Cr1653   1.969       .  S
O1649      C1650   1.261       .  A
C1650      C1894   1.480       .  S
Cr1651     O1654   1.775       .  S
Cr1652     O1654   1.773       .  S
Cr1653     O1654   1.776       .  S
C1655      C1929   1.559   1_554  S
C1655      C1666   1.548       .  S
C1655      C1788   1.536       .  S
C1656      C1932   1.547       .  S
C1656      C1664   1.560       .  S
C1656      C1770   1.539       .  S
C1657      C1927   1.557       .  S
C1657      C1662   1.576       .  S
C1657      C1750   1.533       .  S
C1658      C1931   1.551       .  S
C1658      C1842   1.534       .  S
C1659      C1930   1.552   1_554  S
C1659      C1804   1.535       .  S
C1660      C1928   1.550   1_554  S
C1660      C1661   1.570       .  S
C1660      C1734   1.535       .  S
C1661      C1936   1.551   1_554  S
C1661      C1822   1.541       .  S
C1662      C1938   1.552       .  S
C1662      C1896   1.541       .  S
C1663      C1937   1.558       .  S
C1663      C1714   1.542       .  S
C1664      C1933   1.552       .  S
C1664      C1858   1.536       .  S
C1665      C1935   1.557   1_554  S
C1665      C1696   1.533       .  S
C1666      C1934   1.552   1_554  S
C1666      C1878   1.535       .  S
O1667     Cr1685   2.017       .  S
O1667      C1675   1.268       .  A
O1668     Cr1685   1.966       .  S
O1668      C1669   1.257       .  A
C1669      O1670   1.270       .  A
C1669      C1768   1.479       .  S
O1670     Cr1686   2.027       .  S
O1671     Cr1686   1.980       .  S
O1671      C1672   1.261       .  A
C1672      O1673   1.262       .  A
C1672      C1716   1.472       .  S
O1673     Cr1687   1.998       .  S
O1674     Cr1687   1.976       .  S
O1674      C1675   1.260       .  A
C1675      C1752   1.475       .  S
O1676     Cr1685   1.973       .  S
O1676      C1684   1.256       .  A
O1677     Cr1685   2.010       .  S
O1677      C1678   1.267       .  A
C1678      O1679   1.254       .  A
C1678      C1732   1.475       .  S
O1679     Cr1686   1.967       .  S
O1680     Cr1686   2.014       .  S
O1680      C1681   1.270       .  A
C1681      O1682   1.260       .  A
C1681      C1698   1.473       .  S
O1682     Cr1687   1.972       .  S
O1683     Cr1687   2.012       .  S
O1683      C1684   1.266       .  A
C1684      C1786   1.475       .  S
Cr1685     O1688   1.770       .  S
Cr1686     O1688   1.773       .  S
Cr1687     O1688   1.771       .  S
C1689      C1697   1.480       .  S
C1689      C1690   1.402       .  A
C1689      C1694   1.407       .  A
C1690      C1691   1.398       .  A
C1690      H1699   1.083       .  S
C1691      C1692   1.406       .  A
C1691      H1700   1.083       .  S
C1692      C1695   1.477       .  S
C1692      C1693   1.401       .  A
C1693      C1694   1.397       .  A
C1693      H1701   1.083       .  S
C1694      H1702   1.083       .  S
C1695      H1703   1.086       .  S
C1695      C1696   1.344       .  D
C1696      H1704   1.082       .  S
C1697      H1705   1.087       .  S
C1697      C1698   1.343       .  D
C1698      H1706   1.087       .  S
C1707      C1715   1.482       .  S
C1707      C1708   1.401       .  A
C1707      C1712   1.409       .  A
C1708      C1709   1.398       .  A
C1708      H1717   1.083       .  S
C1709      C1710   1.407       .  A
C1709      H1718   1.083       .  S
C1710      C1713   1.482       .  S
C1710      C1711   1.400       .  A
C1711      C1712   1.398       .  A
C1711      H1719   1.083       .  S
C1712      H1720   1.083       .  S
C1713      H1721   1.087       .  S
C1713      C1714   1.344       .  D
C1714      H1722   1.078       .  S
C1715      H1723   1.087       .  S
C1715      C1716   1.342       .  D
C1716      H1724   1.087       .  S
C1725      C1733   1.486       .  S
C1725      C1726   1.400       .  A
C1725      C1730   1.407       .  A
C1726      C1727   1.402       .  A
C1726      H1735   1.083       .  S
C1727      C1728   1.413       .  A
C1727      H1736   1.079       .  S
C1728      C1731   1.489       .  S
C1728      C1729   1.401       .  A
C1729      C1730   1.391       .  A
C1729      H1737   1.084       .  S
C1730      H1738   1.082       .  S
C1731      H1739   1.088       .  S
C1731      C1732   1.343       .  D
C1732      H1740   1.083       .  S
C1733      H1741   1.086       .  S
C1733      C1734   1.346       .  D
C1734      H1742   1.080       .  S
C1743      C1751   1.486       .  S
C1743      C1744   1.404       .  A
C1743      C1748   1.404       .  A
C1744      C1745   1.404       .  A
C1744      H1753   1.084       .  S
C1745      C1746   1.412       .  A
C1745      H1754   1.080       .  S
C1746      C1749   1.491       .  S
C1746      C1747   1.403       .  A
C1747      C1748   1.393       .  A
C1747      H1755   1.083       .  S
C1748      H1756   1.083       .  S
C1749      H1757   1.085       .  S
C1749      C1750   1.344       .  D
C1750      H1758   1.079       .  S
C1751      H1759   1.087       .  S
C1751      C1752   1.347       .  D
C1752      H1760   1.086       .  S
C1761      C1769   1.491       .  S
C1761      C1762   1.403       .  A
C1761      C1766   1.410       .  A
C1762      C1763   1.400       .  A
C1762      H1771   1.084       .  S
C1763      C1764   1.409       .  A
C1763      H1772   1.081       .  S
C1764      C1767   1.491       .  S
C1764      C1765   1.402       .  A
C1765      C1766   1.399       .  A
C1765      H1773   1.084       .  S
C1766      H1774   1.080       .  S
C1767      H1775   1.087       .  S
C1767      C1768   1.345       .  D
C1768      H1776   1.085       .  S
C1769      H1777   1.080       .  S
C1769      C1770   1.345       .  D
C1770      H1778   1.083       .  S
C1779      C1787   1.482       .  S
C1779      C1780   1.401       .  A
C1779      C1784   1.407       .  A
C1780      C1781   1.399       .  A
C1780      H1789   1.084       .  S
C1781      C1782   1.411       .  A
C1781      H1790   1.080       .  S
C1782      C1785   1.487       .  S
C1782      C1783   1.403       .  A
C1783      C1784   1.395       .  A
C1783      H1791   1.084       .  S
C1784      H1792   1.080       .  S
C1785      H1793   1.087       .  S
C1785      C1786   1.345       .  D
C1786      H1794   1.084       .  S
C1787      H1795   1.079       .  S
C1787      C1788   1.344       .  D
C1788      H1796   1.085       .  S
C1797      C1805   1.481       .  S
C1797      C1798   1.398       .  A
C1797      C1802   1.407       .  A
C1798      C1799   1.395       .  A
C1798      H1807   1.084       .  S
C1799      C1800   1.412       .  A
C1799      H1808   1.078       .  S
C1800      C1803   1.491       .  S
C1800      C1801   1.404       .  A
C1801      C1802   1.399       .  A
C1801      H1809   1.084       .  S
C1802      H1810   1.083       .  S
C1803      H1811   1.086       .  S
C1803      C1804   1.347       .  D
C1804      H1812   1.081       .  S
C1805      H1813   1.087       .  S
C1805      C1806   1.341       .  D
C1806      H1814   1.086       .  S
C1815      C1823   1.499       .  S
C1815      C1816   1.402       .  A
C1815      C1820   1.416       .  A
C1816      C1817   1.398       .  A
C1816      H1825   1.084       .  S
C1817      C1818   1.408       .  A
C1817      H1826   1.082       .  S
C1818      C1821   1.492       .  S
C1818      C1819   1.399       .  A
C1819      C1820   1.405       .  A
C1819      H1827   1.083       .  S
C1820      H1828   1.080       .  S
C1821      H1829   1.086       .  S
C1821      C1822   1.346       .  D
C1822      H1830   1.076       .  S
C1823      H1831   1.087       .  S
C1823      C1824   1.343       .  D
C1824      H1832   1.084       .  S
C1833      C1841   1.475       .  S
C1833      C1834   1.400       .  A
C1833      C1838   1.406       .  A
C1834      C1835   1.395       .  A
C1834      H1843   1.083       .  S
C1835      C1836   1.405       .  A
C1835      H1844   1.083       .  S
C1836      C1839   1.479       .  S
C1836      C1837   1.403       .  A
C1837      C1838   1.400       .  A
C1837      H1845   1.083       .  S
C1838      H1846   1.083       .  S
C1839      H1847   1.087       .  S
C1839      C1840   1.343       .  D
C1840      H1848   1.087       .  S
C1841      H1849   1.084       .  S
C1841      C1842   1.340       .  D
C1842      H1850   1.080       .  S
C1851      C1859   1.492       .  S
C1851      C1852   1.403       .  A
C1851      C1856   1.412       .  A
C1852      C1853   1.396       .  A
C1852      H1861   1.084       .  S
C1853      C1854   1.408       .  A
C1853      H1862   1.082       .  S
C1854      C1857   1.489       .  S
C1854      C1855   1.402       .  A
C1855      C1856   1.402       .  A
C1855      H1863   1.083       .  S
C1856      H1864   1.081       .  S
C1857      H1865   1.083       .  S
C1857      C1858   1.346       .  D
C1858      H1866   1.080       .  S
C1859      H1867   1.087       .  S
C1859      C1860   1.346       .  D
C1860      H1868   1.084       .  S
C1869      C1877   1.489       .  S
C1869      C1870   1.403       .  A
C1869      C1874   1.407       .  A
C1870      C1871   1.401       .  A
C1870      H1879   1.083       .  S
C1871      C1872   1.406       .  A
C1871      H1880   1.083       .  S
C1872      C1875   1.496       .  S
C1872      C1873   1.410       .  A
C1873      C1874   1.402       .  A
C1873      H1881   1.080       .  S
C1874      H1882   1.083       .  S
C1875      H1883   1.087       .  S
C1875      C1876   1.351       .  D
C1876      H1884   1.084       .  S
C1877      H1885   1.087       .  S
C1877      C1878   1.347       .  D
C1878      H1886   1.080       .  S
C1887      C1895   1.491       .  S
C1887      C1888   1.403       .  A
C1887      C1892   1.408       .  A
C1888      C1889   1.404       .  A
C1888      H1897   1.084       .  S
C1889      C1890   1.410       .  A
C1889      H1898   1.082       .  S
C1890      C1893   1.489       .  S
C1890      C1891   1.401       .  A
C1891      C1892   1.398       .  A
C1891      H1899   1.084       .  S
C1892      H1900   1.079       .  S
C1893      H1901   1.087       .  S
C1893      C1894   1.344       .  D
C1894      H1902   1.087       .  S
C1895      H1903   1.077       .  S
C1895      C1896   1.349       .  D
C1896      H1904   1.078       .  S
O1905     Cr1923   1.979       .  S
O1905      C1913   1.256       .  A
O1906     Cr1923   2.033       .  S
O1906      C1907   1.272       .  A
C1907      O1908   1.254       .  A
C1907      C2096   1.479       .  S
O1908     Cr1924   1.959       .  S
O1909     Cr1924   2.000       .  S
O1909      C1910   1.265       .  A
C1910      O1911   1.266       .  A
C1910      C2078   1.473       .  S
O1911     Cr1925   1.989       .  S
O1912     Cr1925   2.017       .  S
O1912      C1913   1.264       .  A
C1913      C2148   1.481       .  S
O1914     Cr1923   2.034       .  S
O1914      C1922   1.275       .  A
O1915     Cr1923   1.970       .  S
O1915      C1916   1.256       .  A
C1916      O1917   1.265       .  A
C1916      C2132   1.476       .  S
O1917     Cr1924   2.008       .  S
O1918     Cr1924   1.977       .  S
O1918      C1919   1.258       .  A
C1919      O1920   1.266       .  A
C1919      C2112   1.477       .  S
O1920     Cr1925   2.012       .  S
O1921     Cr1925   1.971       .  S
O1921      C1922   1.261       .  A
C1922      C2166   1.481       .  S
Cr1923     O1926   1.775       .  S
Cr1924     O1926   1.772       .  S
Cr1925     O1926   1.774       .  S
C1927      C1938   1.548       .  S
C1927      C2060   1.537       .  S
C1928      C1936   1.560       .  S
C1928      C2042   1.536       .  S
C1929      C1934   1.574       .  S
C1929      C2022   1.529       .  S
C1930      C2114   1.535       .  S
C1931      C2076   1.540       .  S
C1932      C1933   1.569       .  S
C1932      C2006   1.549       .  S
C1933      C2094   1.530       .  S
C1934      C2168   1.541       .  S
C1935      C1986   1.542       .  S
C1936      C2130   1.537       .  S
C1937      C1968   1.538       .  S
C1938      C2150   1.532       .  S
O1939     Cr1957   2.017       .  S
O1939      C1947   1.268       .  A
O1940     Cr1957   1.965       .  S
O1940      C1941   1.256       .  A
C1941      O1942   1.271       .  A
C1941      C2040   1.478       .  S
O1942     Cr1958   2.025       .  S
O1943     Cr1958   1.982       .  S
O1943      C1944   1.261       .  A
C1944      O1945   1.262       .  A
C1944      C1988   1.476       .  S
O1945     Cr1959   2.001       .  S
O1946     Cr1959   1.980       .  S
O1946      C1947   1.262       .  A
C1947      C2024   1.477       .  S
O1948     Cr1957   1.972       .  S
O1948      C1956   1.256       .  A
O1949     Cr1957   2.017       .  S
O1949      C1950   1.267       .  A
C1950      O1951   1.255       .  A
C1950      C2004   1.480       .  S
O1951     Cr1958   1.969       .  S
O1952     Cr1958   2.013       .  S
O1952      C1953   1.270       .  A
C1953      O1954   1.262       .  A
C1953      C1970   1.474       .  S
O1954     Cr1959   1.973       .  S
O1955     Cr1959   2.014       .  S
O1955      C1956   1.266       .  A
C1956      C2058   1.475       .  S
Cr1957     O1960   1.775       .  S
Cr1958     O1960   1.777       .  S
Cr1959     O1960   1.774       .  S
C1961      C1969   1.478       .  S
C1961      C1962   1.401       .  A
C1961      C1966   1.405       .  A
C1962      C1963   1.398       .  A
C1962      H1971   1.083       .  S
C1963      C1964   1.406       .  A
C1963      H1972   1.083       .  S
C1964      C1967   1.480       .  S
C1964      C1965   1.403       .  A
C1965      C1966   1.398       .  A
C1965      H1973   1.084       .  S
C1966      H1974   1.083       .  S
C1967      H1975   1.085       .  S
C1967      C1968   1.345       .  D
C1968      H1976   1.081       .  S
C1969      H1977   1.087       .  S
C1969      C1970   1.343       .  D
C1970      H1978   1.087       .  S
C1979      C1987   1.484       .  S
C1979      C1980   1.401       .  A
C1979      C1984   1.409       .  A
C1980      C1981   1.398       .  A
C1980      H1989   1.083       .  S
C1981      C1982   1.408       .  A
C1981      H1990   1.083       .  S
C1982      C1985   1.483       .  S
C1982      C1983   1.401       .  A
C1983      C1984   1.399       .  A
C1983      H1991   1.083       .  S
C1984      H1992   1.083       .  S
C1985      H1993   1.087       .  S
C1985      C1986   1.345       .  D
C1986      H1994   1.077       .  S
C1987      H1995   1.086       .  S
C1987      C1988   1.343       .  D
C1988      H1996   1.087       .  S
C1997      C2005   1.494       .  S
C1997      C1998   1.401       .  A
C1997      C2002   1.407       .  A
C1998      C1999   1.403       .  A
C1998      H2007   1.082       .  S
C1999      C2000   1.414       .  A
C1999      H2008   1.079       .  S
C2000      C2003   1.497       .  S
C2000      C2001   1.403       .  A
C2001      C2002   1.397       .  A
C2001      H2009   1.084       .  S
C2002      H2010   1.081       .  S
C2003      H2011   1.088       .  S
C2003      C2004   1.346       .  D
C2004      H2012   1.083       .  S
C2005      H2013   1.085       .  S
C2005      C2006   1.352       .  D
C2006      H2014   1.073       .  S
C2015      C2023   1.485       .  S
C2015      C2016   1.402       .  A
C2015      C2020   1.405       .  A
C2016      C2017   1.400       .  A
C2016      H2025   1.083       .  S
C2017      C2018   1.410       .  A
C2017      H2026   1.079       .  S
C2018      C2021   1.490       .  S
C2018      C2019   1.405       .  A
C2019      C2020   1.396       .  A
C2019      H2027   1.083       .  S
C2020      H2028   1.083       .  S
C2021      H2029   1.086       .  S
C2021      C2022   1.346       .  D
C2022      H2030   1.077       .  S
C2023      H2031   1.087       .  S
C2023      C2024   1.345       .  D
C2024      H2032   1.086       .  S
C2033      C2041   1.492       .  S
C2033      C2034   1.403       .  A
C2033      C2038   1.409       .  A
C2034      C2035   1.402       .  A
C2034      H2043   1.083       .  S
C2035      C2036   1.411       .  A
C2035      H2044   1.081       .  S
C2036      C2039   1.491       .  S
C2036      C2037   1.401       .  A
C2037      C2038   1.396       .  A
C2037      H2045   1.084       .  S
C2038      H2046   1.079       .  S
C2039      H2047   1.087       .  S
C2039      C2040   1.344       .  D
C2040      H2048   1.084       .  S
C2041      H2049   1.081       .  S
C2041      C2042   1.346       .  D
C2042      H2050   1.082       .  S
C2051      C2059   1.483       .  S
C2051      C2052   1.401       .  A
C2051      C2056   1.407       .  A
C2052      C2053   1.399       .  A
C2052      H2061   1.084       .  S
C2053      C2054   1.410       .  A
C2053      H2062   1.080       .  S
C2054      C2057   1.487       .  S
C2054      C2055   1.403       .  A
C2055      C2056   1.395       .  A
C2055      H2063   1.084       .  S
C2056      H2064   1.081       .  S
C2057      H2065   1.087       .  S
C2057      C2058   1.345       .  D
C2058      H2066   1.084       .  S
C2059      H2067   1.078       .  S
C2059      C2060   1.345       .  D
C2060      H2068   1.083       .  S
C2069      C2077   1.482       .  S
C2069      C2070   1.398       .  A
C2069      C2074   1.408       .  A
C2070      C2071   1.395       .  A
C2070      H2079   1.084       .  S
C2071      C2072   1.410       .  A
C2071      H2080   1.077       .  S
C2072      C2075   1.491       .  S
C2072      C2073   1.405       .  A
C2073      C2074   1.401       .  A
C2073      H2081   1.084       .  S
C2074      H2082   1.083       .  S
C2075      H2083   1.086       .  S
C2075      C2076   1.350       .  D
C2076      H2084   1.082       .  S
C2077      H2085   1.087       .  S
C2077      C2078   1.340       .  D
C2078      H2086   1.087       .  S
C2087      C2095   1.496       .  S
C2087      C2088   1.401       .  A
C2087      C2092   1.417       .  A
C2088      C2089   1.394       .  A
C2088      H2097   1.084       .  S
C2089      C2090   1.408       .  A
C2089      H2098   1.081       .  S
C2090      C2093   1.489       .  S
C2090      C2091   1.399       .  A
C2091      C2092   1.405       .  A
C2091      H2099   1.083       .  S
C2092      H2100   1.079       .  S
C2093      H2101   1.085       .  S
C2093      C2094   1.343       .  D
C2094      H2102   1.084       .  S
C2095      H2103   1.087       .  S
C2095      C2096   1.342       .  D
C2096      H2104   1.083       .  S
C2105      C2113   1.478       .  S
C2105      C2106   1.401       .  A
C2105      C2110   1.405       .  A
C2106      C2107   1.397       .  A
C2106      H2115   1.083       .  S
C2107      C2108   1.406       .  A
C2107      H2116   1.083       .  S
C2108      C2111   1.483       .  S
C2108      C2109   1.404       .  A
C2109      C2110   1.401       .  A
C2109      H2117   1.083       .  S
C2110      H2118   1.083       .  S
C2111      H2119   1.087       .  S
C2111      C2112   1.345       .  D
C2112      H2120   1.087       .  S
C2113      H2121   1.083       .  S
C2113      C2114   1.342       .  D
C2114      H2122   1.081       .  S
C2123      C2131   1.489       .  S
C2123      C2124   1.403       .  A
C2123      C2128   1.410       .  A
C2124      C2125   1.397       .  A
C2124      H2133   1.084       .  S
C2125      C2126   1.408       .  A
C2125      H2134   1.081       .  S
C2126      C2129   1.487       .  S
C2126      C2127   1.402       .  A
C2127      C2128   1.400       .  A
C2127      H2135   1.083       .  S
C2128      H2136   1.081       .  S
C2129      H2137   1.081       .  S
C2129      C2130   1.345       .  D
C2130      H2138   1.081       .  S
C2131      H2139   1.087       .  S
C2131      C2132   1.345       .  D
C2132      H2140   1.084       .  S
C2141      C2149   1.486       .  S
C2141      C2142   1.402       .  A
C2141      C2146   1.408       .  A
C2142      C2143   1.399       .  A
C2142      H2151   1.084       .  S
C2143      C2144   1.405       .  A
C2143      H2152   1.083       .  S
C2144      C2147   1.491       .  S
C2144      C2145   1.408       .  A
C2145      C2146   1.402       .  A
C2145      H2153   1.081       .  S
C2146      H2154   1.082       .  S
C2147      H2155   1.087       .  S
C2147      C2148   1.348       .  D
C2148      H2156   1.085       .  S
C2149      H2157   1.087       .  S
C2149      C2150   1.345       .  D
C2150      H2158   1.081       .  S
C2159      C2167   1.491       .  S
C2159      C2160   1.403       .  A
C2159      C2164   1.408       .  A
C2160      C2161   1.405       .  A
C2160      H2169   1.084       .  S
C2161      C2162   1.409       .  A
C2161      H2170   1.082       .  S
C2162      C2165   1.488       .  S
C2162      C2163   1.400       .  A
C2163      C2164   1.397       .  A
C2163      H2171   1.084       .  S
C2164      H2172   1.080       .  S
C2165      H2173   1.087       .  S
C2165      C2166   1.344       .  D
C2166      H2174   1.087       .  S
C2167      H2175   1.078       .  S
C2167      C2168   1.348       .  D
C2168      H2176   1.077       .  S
