geometry optimzed in LAMMPS
_audit_creation_date              2020-11-30 
_audit_creation_method            'lammps2cif' 
_symmetry_space_group_name_H-M    'P1' 
_symmetry_Int_Tables_number       1 
_symmetry_cell_setting            triclinic 
loop_ 
_symmetry_equiv_pos_as_xyz 
  x,y,z 
_cell_length_a                    48.12488946 
_cell_length_b                    48.65451813382276 
_cell_length_c                    48.02981881398523 
_cell_angle_alpha                 90.10982600079069 
_cell_angle_beta                  89.68100825843902 
_cell_angle_gamma                 92.27068720291665 
loop_ 
_atom_site_label 
_atom_site_type_symbol 
_atom_site_fract_x 
_atom_site_fract_y 
_atom_site_fract_z 
_atom_site_charge 
C1          C  0.29865412  0.34098792  0.29825209     0.85900
C2          C  0.32827403  0.33028063  0.29499214    -0.54400
C3          C  0.33056053  0.30323794  0.30124474     0.08800
C4          C  0.30287081  0.28835189  0.30914308     0.19800
C5          C  0.28122286  0.32168538  0.27924939    -0.55100
C6          C  0.28305795  0.29423725  0.28489647     0.08900
C7          C  0.28992347  0.33265804  0.32804214    -0.54600
C8          C  0.29199500  0.30525005  0.33388086     0.09500
H9          H  0.34648415  0.34210630  0.28807326     0.14000
H10         H  0.30468865  0.26614055  0.31379284    -0.00300
H11         H  0.26725952  0.32923159  0.26367886     0.14300
H12         H  0.28401401  0.34755705  0.34363711     0.14100
C13         C  0.01144003  0.04504241  0.33959193     0.85900
C14         C  0.48201285  0.03674861  0.32771111    -0.54400
C15         C  0.47776347  0.04162219  0.30007158     0.08800
C16         C  0.50401989  0.05385341  0.28508387     0.19800
C17         C  0.03162372  0.02982911  0.32080688    -0.55100
C18         C  0.02821569  0.03403438  0.29310914     0.08900
C19         C  0.01492215  0.07524981  0.33118552    -0.54600
C20         C  0.01130682  0.08001980  0.30356837     0.09500
H21         H  0.46560104  0.02853281  0.34127963     0.14000
H22         H  0.50099749  0.05774436  0.26257531    -0.00300
H23         H  0.04493791  0.01386697  0.32796370     0.14300
H24         H  0.01893395  0.09174439  0.34609485     0.14100
C25         C  0.08954979  0.29890210  0.00344902     0.85900
C26         C  0.08197073  0.32821615  0.01123971    -0.54400
C27         C  0.05425785  0.33302405  0.00962868     0.08800
C28         C  0.03838832  0.31047799  0.49898492     0.19800
C29         C  0.07096966  0.28016358  0.02170288    -0.55100
C30         C  0.04324687  0.28479768  0.02047722     0.08900
C31         C  0.07992887  0.29894513  0.47286700    -0.54600
C32         C  0.05201361  0.30225795  0.47100080     0.09500
H33         H  0.09733397  0.34396316  0.01748791     0.14000
H34         H  0.01570367  0.31340868  0.49766513    -0.00300
H35         H  0.07915172  0.26359101  0.03395961     0.14300
H36         H  0.09131334  0.29297504  0.45453663     0.14100
C37         C  0.21605108  0.25806855  0.25884488     0.85900
C38         C  0.22558075  0.22889352  0.26367437    -0.54400
C39         C  0.25308976  0.22530800  0.25848607     0.08800
C40         C  0.26941733  0.25209387  0.25006237     0.19800
C41         C  0.23495389  0.27683797  0.27682712    -0.55100
C42         C  0.26278624  0.27370501  0.27279029     0.08900
C43         C  0.22612574  0.26538617  0.22906085    -0.54600
C44         C  0.25377115  0.26203877  0.22424124     0.09500
H45         H  0.21121508  0.21192376  0.26909415     0.14000
H46         H  0.29195033  0.24949961  0.24626685    -0.00300
H47         H  0.22718324  0.29306591  0.28990019     0.14300
H48         H  0.21271067  0.27247702  0.21273044     0.14100
C49         C  0.29244119  0.46467879  0.04848423     0.85900
C50         C  0.28420931  0.47680095  0.07702860    -0.54400
C51         C  0.29157919  0.00352400  0.07918477     0.08800
C52         C  0.30405170  0.01772143  0.05318542     0.19800
C53         C  0.27646212  0.48193823  0.02767805    -0.55100
C54         C  0.28328333  0.00941857  0.02987583     0.08900
C55         C  0.32298616  0.47393779  0.04493036    -0.54600
C56         C  0.33056301  0.00177860  0.04669910     0.09500
H57         H  0.27560978  0.46529407  0.09445370     0.14000
H58         H  0.30788901  0.04022521  0.05567753    -0.00300
H59         H  0.26230884  0.47292542  0.01236132     0.14300
H60         H  0.33943248  0.45963407  0.04135264     0.14100
C61         C  0.00678448  0.21816153  0.04650887     0.85900
C62         C  0.47985673  0.22784786  0.03902494    -0.54400
C63         C  0.47512324  0.25490513  0.04350060     0.08800
C64         C  0.50034365  0.27164649  0.05543109     0.19800
C65         C  0.02673854  0.23729880  0.02975057    -0.55100
C66         C  0.02328930  0.26472594  0.03376742     0.08900
C67         C  0.01126796  0.22750594  0.07664997    -0.54600
C68         C  0.00794076  0.25482434  0.08140923     0.09500
H69         H  0.46386190  0.21347750  0.03123564     0.14000
H70         H  0.49668820  0.29377991  0.05894551    -0.00300
H71         H  0.04270905  0.23076357  0.01567097     0.14300
H72         H  0.01670990  0.21343686  0.09311688     0.14100
C73         C  0.25596600  0.04612638  0.46693205     0.85900
C74         C  0.26309775  0.07533259  0.47723856    -0.54400
C75         C  0.25983588  0.07755382  0.00611625     0.08800
C76         C  0.24917525  0.05103481  0.02099272     0.19800
C77         C  0.27432047  0.02723316  0.48356059    -0.55100
C78         C  0.26925859  0.02881171  0.01129034     0.08900
C79         C  0.22652527  0.03984204  0.47890910    -0.54600
C80         C  0.22145670  0.04318876  0.00628995     0.09500
H81         H  0.26820892  0.09234716  0.46324762     0.14000
H82         H  0.24723016  0.05308900  0.04394758    -0.00300
H83         H  0.28698809  0.01187753  0.47379621     0.14300
H84         H  0.20825584  0.03391360  0.46703040     0.14100
C85         C  0.04687874  0.46649927  0.25477663     0.85900
C86         C  0.07810858  0.47311399  0.25819565    -0.54400
C87         C  0.08531504  0.00231099  0.25455251     0.08800
C88         C  0.06018517  0.02053992  0.24979346     0.19800
C89         C  0.03261936  0.48522811  0.27556682    -0.55100
C90         C  0.03959068  0.01375842  0.27359062     0.08900
C91         C  0.03999742  0.47909290  0.22629522    -0.54600
C92         C  0.04572822  0.00771272  0.22439236     0.09500
H93         H  0.09301074  0.45736496  0.26198751     0.14000
H94         H  0.06581559  0.04277268  0.24748274    -0.00300
H95         H  0.01833154  0.47737632  0.29145691     0.14300
H96         H  0.03058859  0.46839010  0.20880518     0.14100
Zn97       Zn  0.04781333  0.04982424  0.01256664     1.49700
Zn98       Zn  0.00233981  0.04303335  0.06008149     1.49400
Zn99       Zn  0.00207843  0.99936231  0.01158216     1.49100
Zn100      Zn  0.05293933  0.00084613  0.05525223     1.49500
O101        O  0.02637731  0.02293926  0.03483326    -1.84700
O102        O  0.03768191  0.08844041  0.02173439    -0.75400
O103        O  0.46337175  0.03468043  0.05723548    -0.75200
O104        O  0.00818480  0.01373976  0.47158162    -0.74700
O105        O  0.00484257  0.08356546  0.05373422    -0.75400
O106        O  0.04418843  0.04407431  0.47073391    -0.75000
O107        O  0.46129055  0.00533935  0.02185780    -0.75600
O108        O  0.04684241  0.46033343  0.04504728    -0.74900
O109        O  0.01435525  0.03811923  0.09885991    -0.75700
O110        O  0.01258216  0.45987311  0.01411873    -0.75100
O111        O  0.04831542  0.00834147  0.09628710    -0.75600
O112        O  0.09357302  0.01213585  0.04671629    -0.75500
O113        O  0.08923400  0.04729368  0.01812287    -0.75300
C114        C  0.02026695  0.09887633  0.03823046     0.76500
C115        C  0.44934854  0.01913488  0.04075328     0.77000
C116        C  0.02517855  0.02976467  0.45853488     0.76000
C117        C  0.03088962  0.44742471  0.02784155     0.76400
C118        C  0.03297472  0.02424287  0.11018420     0.77500
C119        C  0.10447494  0.03163788  0.03211220     0.76500
Zn120      Zn  0.30712491  0.05842467  0.24779860     1.49700
Zn121      Zn  0.26209682  0.50754804  0.24905139     1.49400
Zn122      Zn  0.30434131  0.01634228  0.29822460     1.49100
Zn123      Zn  0.25461522  0.05856467  0.28987001     1.49500
O124        O  0.28169998  0.03533458  0.27122414    -1.84700
O125        O  0.30090948  0.04831091  0.20742110    -0.75400
O126        O  0.27120045  0.46838259  0.25975741    -0.75200
O127        O  0.34537946  0.02571358  0.29356329    -0.74700
O128        O  0.27008050  0.01302136  0.20874602    -0.75400
O129        O  0.34822187  0.05345548  0.25702392    -0.75000
O130        O  0.30115240  0.47565485  0.29422588    -0.75600
O131        O  0.25700638  0.05313236  0.33123329    -0.74900
O132        O  0.21923351  0.01165248  0.25345047    -0.75700
O133        O  0.29249165  0.02563108  0.33705904    -0.75100
O134        O  0.21426447  0.04890863  0.27911130    -0.75600
O135        O  0.26272017  0.09877409  0.28084823    -0.75500
O136        O  0.29904124  0.09896990  0.25186252    -0.75300
C137        C  0.28596865  0.02983790  0.19513111     0.76500
C138        C  0.28726469  0.45935374  0.27834342     0.77000
C139        C  0.35988377  0.04005640  0.27623688     0.76000
C140        C  0.27291250  0.03967878  0.34681375     0.76400
C141        C  0.20363441  0.02888184  0.26513541     0.77500
C142        C  0.28061601  0.11156008  0.26548696     0.76500
Zn143      Zn  0.25837625  0.29031716  0.05209405     1.49700
Zn144      Zn  0.30751541  0.29342714  0.00681778     1.49400
Zn145      Zn  0.30261222  0.24412188  0.05231233     1.52700
Zn146      Zn  0.26100365  0.25028632  0.50181935     1.49500
O147        O  0.28203538  0.26864772  0.02819440    -1.84700
O148        O  0.26912635  0.33019638  0.04948705    -0.75400
O149        O  0.34736727  0.28609752  0.01632089    -0.75200
O150        O  0.29374235  0.24932604  0.09346577    -0.74700
O151        O  0.30171209  0.33348973  0.01673867    -0.75400
O152        O  0.26084752  0.27983901  0.09249697    -0.75000
O153        O  0.34356749  0.25242662  0.04762439    -0.75600
O154        O  0.26075914  0.20636005  0.01065317    -0.74900
O155        O  0.30530540  0.29107241  0.46508025    -0.75700
O156        O  0.29333013  0.20406452  0.04327396    -0.75100
O157        O  0.27136078  0.25887031  0.46157799    -0.75600
O158        O  0.21901042  0.25765013  0.00511441    -0.75500
O159        O  0.21878677  0.28752337  0.03999879    -0.75300
C160        C  0.28615579  0.34460714  0.03477167     0.76500
C161        C  0.35826993  0.26965370  0.03333232     0.77000
C162        C  0.27619336  0.26390708  0.10603942     0.76000
C163        C  0.27544840  0.19248593  0.02714437     0.76400
C164        C  0.28866008  0.27610880  0.45044382     0.77500
C165        C  0.20633995  0.27439116  0.02052879     0.76500
Zn166      Zn  0.04690342  0.29704734  0.29700870     1.49700
Zn167      Zn  0.99443510  0.29455808  0.25557198     1.49400
Zn168      Zn  0.03770007  0.24730990  0.25313650     1.49100
Zn169      Zn  0.99832664  0.25211520  0.30701389     1.49500
O170        O  0.01930836  0.27276017  0.27821706    -1.84700
O171        O  0.04334234  0.33605987  0.28443421    -0.75400
O172        O  0.99782907  0.28684847  0.21419018    -0.75200
O173        O  0.07912640  0.25197804  0.25724369    -0.74700
O174        O  0.00453896  0.33491801  0.25959986    -0.75400
O175        O  0.08614866  0.28577066  0.28794107    -0.75000
O176        O  0.02895280  0.25459123  0.21250859    -0.75600
O177        O  0.00199433  0.21106380  0.30117811    -0.74900
O178        O  0.45528900  0.28921185  0.26823241    -0.75700
O179        O  0.02675959  0.20764058  0.26221079    -0.75100
O180        O  0.45768753  0.25988390  0.30367969    -0.75600
O181        O  0.00969172  0.26372602  0.34652553    -0.75500
O182        O  0.04107435  0.29759285  0.33893634    -0.75300
C183        C  0.02514238  0.34816900  0.27036003     0.76500
C184        C  0.01272268  0.27068769  0.20022348     0.77000
C185        C  0.09544801  0.26786684  0.27122496     0.76000
C186        C  0.01291891  0.19650538  0.28221082     0.76400
C187        C  0.44377672  0.27478273  0.28752692     0.77500
C188        C  0.02591342  0.28309125  0.35557441     0.76500
C189        C  0.11493442  0.01235650  0.25444908    -0.06700
C190        C  0.12411629  0.03094402  0.27512453    -0.17900
C191        C  0.15264397  0.03704258  0.27930250     0.10500
C192        C  0.17274399  0.02499419  0.26176177    -0.06600
C193        C  0.16309248  0.00766347  0.24010125    -0.17900
C194        C  0.13481130  0.00119557  0.23626422     0.10500
S195        S  0.16171364  0.05865775  0.30858044    -0.32900
S196        S  0.12722101  0.47132772  0.21224843    -0.32900
H197        H  0.10060545  0.48038561  0.20635480     0.28500
H198        H  0.18091268  0.04033537  0.31908075     0.28500
H199        H  0.10904285  0.03943668  0.28926756     0.19100
H200        H  0.17780318  0.99862119  0.22596226     0.19100
C201        C  0.03943366  0.43576979  0.25937209    -0.06700
C202        C  0.02734268  0.41936536  0.23798334    -0.17900
C203        C  0.02176414  0.39119002  0.24126629     0.10500
C204        C  0.02836605  0.37829081  0.26647482    -0.06600
C205        C  0.03989733  0.39430822  0.28811172    -0.17900
C206        C  0.04533136  0.42270150  0.28506673     0.10500
S207        S  0.00833220  0.37245080  0.21152795    -0.32900
S208        S  0.06032769  0.44158147  0.31427518    -0.32900
H209        H  0.06077586  0.41957989  0.33319296     0.28500
H210        H  0.98245294  0.36658808  0.22443031     0.28500
H211        H  0.02224572  0.42768969  0.21806770     0.19100
H212        H  0.04482298  0.38437982  0.30752301     0.19100
C213        C  0.04160518  0.02183083  0.19796178    -0.06700
C214        C  0.06524107  0.02744560  0.18153249    -0.17900
C215        C  0.06302607  0.02959575  0.15269017     0.10500
C216        C  0.03652877  0.02666333  0.14032548    -0.06600
C217        C  0.01268379  0.02493121  0.15721119    -0.17900
C218        C  0.01493775  0.02231584  0.18597426     0.10500
S219        S  0.09470713  0.03497384  0.13284579    -0.32900
S220        S  0.48640824  0.51825560  0.20809264    -0.32900
H221        H  0.99753240  0.52159736  0.23286983     0.28500
H222        H  0.08269370  0.05007544  0.11139166     0.28500
H223        H  0.08567671  0.02794979  0.19089839     0.19100
H224        H  0.99223319  0.02371113  0.14782509     0.19100
C225        C  0.26504352  0.10477220  0.01931346    -0.06700
C226        C  0.24199805  0.12057712  0.02508197    -0.17900
C227        C  0.24491491  0.14904262  0.02904525     0.10500
C228        C  0.27159876  0.16218081  0.02744018    -0.06600
C229        C  0.29492973  0.14604667  0.02410298    -0.17900
C230        C  0.29193462  0.11756943  0.01976376     0.10500
S231        S  0.21368300  0.16750898  0.03520187    -0.32900
S232        S  0.31925645  0.09837128  0.53344249    -0.32900
H233        H  0.31352426  0.07765682  0.51368750     0.28500
H234        H  0.22632358  0.18803074  0.05208224     0.28500
H235        H  0.22138854  0.11101188  0.02487140     0.19100
H236        H  0.31551885  0.15588590  0.02325129     0.19100
C237        C  0.26047415  0.04341491  0.43541359    -0.06700
C238        C  0.23836458  0.03548932  0.41754596    -0.17900
C239        C  0.24205238  0.03359203  0.38880507     0.10500
C240        C  0.26831511  0.04002193  0.37702274    -0.06600
C241        C  0.29067556  0.04716573  0.39435063    -0.17900
C242        C  0.28718016  0.04910874  0.42326095     0.10500
S243        S  0.21225997  0.52612043  0.36734695    -0.32900
S244        S  0.31715968  0.05946219  0.44400423    -0.32900
H245        H  0.33674110  0.06169613  0.42220543     0.28500
H246        H  0.22665538  0.51010663  0.34804924     0.28500
H247        H  0.21783963  0.03032780  0.42526350     0.19100
H248        H  0.31083277  0.05185506  0.38500691     0.19100
C249        C  0.13541542  0.03584660  0.03059981    -0.06700
C250        C  0.15241420  0.01313413  0.03362233    -0.17900
C251        C  0.18111303  0.01526676  0.02784200     0.10500
C252        C  0.19346624  0.04079064  0.01952290    -0.06600
C253        C  0.18236299  0.06224919  0.52873155    -0.17900
C254        C  0.15341476  0.06055906  0.53336989     0.10500
S255        S  0.20053034  0.98443087  0.03009878    -0.32900
S256        S  0.13541015  0.09113508  0.54278921    -0.32900
H257        H  0.15884696  0.10936584  0.54261557     0.28500
H258        H  0.21720700  0.98971117  0.00649435     0.28500
H259        H  0.14307111  0.99318008  0.03889074     0.19100
H260        H  0.19342260  0.08200324  0.52944332     0.19100
C261        C  0.01185980  0.27072296  0.16912490    -0.06700
C262        C  0.03571659  0.26301915  0.15448419    -0.17900
C263        C  0.03600021  0.26093453  0.12540937     0.10500
C264        C  0.01177808  0.26615877  0.11008504    -0.06600
C265        C  0.48679697  0.27354868  0.12566997    -0.17900
C266        C  0.48658893  0.27471627  0.15490407     0.10500
S267        S  0.06782842  0.25090567  0.10896112    -0.32900
S268        S  0.45337398  0.27846843  0.17174476    -0.32900
H269        H  0.45767511  0.25849355  0.19226502     0.28500
H270        H  0.06264699  0.26366934  0.08339942     0.28500
H271        H  0.05435126  0.25827149  0.16578924     0.19100
H272        H  0.46747736  0.27534883  0.11473935     0.19100
C273        C  0.44670778  0.26486397  0.04082651    -0.06700
C274        C  0.42971270  0.26329625  0.06453713    -0.17900
C275        C  0.40115216  0.26677316  0.06294113     0.10500
C276        C  0.38876062  0.27044045  0.03667546    -0.06600
C277        C  0.40583934  0.27295876  0.01293583    -0.17900
C278        C  0.43464997  0.27014279  0.01471666     0.10500
S279        S  0.38177659  0.26613285  0.09522530    -0.32900
S280        S  0.45440803  0.27140068  0.98271738    -0.32900
H281        H  0.48012799  0.27777925  0.99504523     0.28500
H282        H  0.36273924  0.28570847  0.08691135     0.28500
H283        H  0.43844548  0.25781369  0.08429948     0.19100
H284        H  0.39655965  0.27586121  0.99269529     0.19100
C285        C  0.01751359  0.12923306  0.03961051    -0.06700
C286        C  0.49893253  0.14073578  0.05641467    -0.17900
C287        C  0.49498955  0.16895689  0.05922884     0.10500
C288        C  0.00975207  0.18695879  0.04334420    -0.06600
C289        C  0.03123814  0.17620098  0.02699835    -0.17900
C290        C  0.03565540  0.14810106  0.02548277     0.10500
S291        S  0.46735771  0.17982033  0.08209390    -0.32900
S292        S  0.06592585  0.13833688  0.00613972    -0.32900
H293        H  0.07672457  0.12414148  0.02889619     0.28500
H294        H  0.45915655  0.15377950  0.09262547     0.28500
H295        H  0.48508566  0.12642748  0.06744408     0.19100
H296        H  0.04591647  0.18915877  0.01577360     0.19100
C297        C  0.28671071  0.02760306  0.16430793    -0.06700
C298        C  0.26170961  0.51918432  0.15107413    -0.17900
C299        C  0.26097547  0.51414996  0.12245044     0.10500
C300        C  0.28734392  0.01706113  0.10645542    -0.06600
C301        C  0.31035239  0.03006488  0.11932989    -0.17900
C302        C  0.31059552  0.03485462  0.14809088     0.10500
S303        S  0.22858103  0.50141487  0.10757121    -0.32900
S304        S  0.34299413  0.04748645  0.16287009    -0.32900
H305        H  0.34296984  0.02752807  0.18404796     0.28500
H306        H  0.23450821  0.51066137  0.08035224     0.28500
H307        H  0.24313569  0.51460924  0.16334457     0.19100
H308        H  0.32910714  0.03441369  0.10738221     0.19100
C309        C  0.28882401  0.43332101  0.04428121    -0.06700
C310        C  0.28157060  0.41584671  0.06682614    -0.17900
C311        C  0.28151719  0.38725226  0.06454302     0.10500
C312        C  0.28760078  0.37489674  0.03870550    -0.06600
C313        C  0.29459295  0.39190006  0.01598590    -0.17900
C314        C  0.29558326  0.42073118  0.01841559     0.10500
S315        S  0.27550267  0.36794920  0.09624768    -0.32900
S316        S  0.31262454  0.44221517  0.48924113    -0.32900
H317        H  0.30917562  0.41893889  0.96949921     0.28500
H318        H  0.29677175  0.34952116  0.09110848     0.28500
H319        H  0.27723482  0.42373909  0.08720349     0.19100
H320        H  0.29936504  0.38247445  0.99618980     0.19100
C321        C  0.41852975  0.01747259  0.04315502    -0.06700
C322        C  0.40271880  0.01768037  0.01866315    -0.17900
C323        C  0.37359115  0.01575224  0.01952109     0.10500
C324        C  0.35958274  0.01319794  0.04532449    -0.06600
C325        C  0.37263719  0.51326859  0.07123994    -0.17900
C326        C  0.40178847  0.51546705  0.07101840     0.10500
S327        S  0.35531791  0.01478448  0.98692111    -0.32900
S328        S  0.41912519  0.51422085  0.10416055    -0.32900
H329        H  0.44059342  0.49762201  0.09486258     0.28500
H330        H  0.33156403  0.02717557  0.99741815     0.28500
H331        H  0.41314506  0.01918973  0.99863275     0.19100
H332        H  0.36195679  0.50992964  0.09089340     0.19100
C333        C  0.26397004  0.19712688  0.25662782    -0.06700
C334        C  0.28517349  0.18950304  0.27473347    -0.17900
C335        C  0.29233850  0.16181655  0.27726127     0.10500
C336        C  0.27793722  0.14137824  0.26136800    -0.06600
C337        C  0.25798790  0.14924125  0.24225252    -0.17900
C338        C  0.25097891  0.17664883  0.23948080     0.10500
S339        S  0.31857880  0.15375828  0.30229496    -0.32900
S340        S  0.22433938  0.18341579  0.21432775    -0.32900
H341        H  0.23263484  0.21073965  0.20894554     0.28500
H342        H  0.32638442  0.12900015  0.28997843     0.28500
H343        H  0.29524881  0.20495911  0.28792469     0.19100
H344        H  0.24710386  0.13364479  0.22982945     0.19100
C345        C  0.18448321  0.25996884  0.26338638    -0.06700
C346        C  0.16669117  0.25485835  0.24052272    -0.17900
C347        C  0.13809621  0.25835347  0.24219259     0.10500
C348        C  0.12589117  0.26537941  0.26790568    -0.06600
C349        C  0.14299568  0.26843002  0.29135068    -0.17900
C350        C  0.17174133  0.26474450  0.28971854     0.10500
S351        S  0.11874617  0.25467365  0.21022010    -0.32900
S352        S  0.18972607  0.26406848  0.32255960    -0.32900
H353        H  0.20734175  0.24292031  0.31508615     0.28500
H354        H  0.10207004  0.27727524  0.21534571     0.28500
H355        H  0.17487704  0.24807602  0.22078719     0.19100
H356        H  0.13366604  0.27245453  0.31146901     0.19100
C357        C  0.26548344  0.26480698  0.19556548    -0.06700
C358        C  0.27640965  0.24161872  0.18270796    -0.17900
C359        C  0.27995224  0.24035995  0.15365096     0.10500
C360        C  0.27373644  0.26336664  0.13699833    -0.06600
C361        C  0.26467456  0.28715932  0.15032783    -0.17900
C362        C  0.26061262  0.28814634  0.17911314     0.10500
S363        S  0.28974428  0.20794328  0.13915596    -0.32900
S364        S  0.24895838  0.31985951  0.19365023    -0.32900
H365        H  0.26249714  0.31632543  0.21904135     0.28500
H366        H  0.26982831  0.20793992  0.11780217     0.28500
H367        H  0.28004504  0.22350776  0.19505790     0.19100
H368        H  0.26051832  0.30528533  0.13818943     0.19100
C369        C  0.12050428  0.29351092  0.00765543    -0.06700
C370        C  0.14059661  0.29120357  0.48403980    -0.17900
C371        C  0.16553360  0.28057285  0.98848438     0.10500
C372        C  0.17673344  0.27954302  0.01551228    -0.06600
C373        C  0.16002878  0.28643663  0.03824300    -0.17900
C374        C  0.13237475  0.29363986  0.03475571     0.10500
S375        S  0.18885023  0.27542975  0.45766848    -0.32900
S376        S  0.11313995  0.30365337  0.06539573    -0.32900
H377        H  0.13127975  0.29328983  0.08532971     0.28500
H378        H  0.16961029  0.28225010  0.43711136     0.28500
H379        H  0.13282549  0.28991565  0.46321294     0.19100
H380        H  0.16889050  0.28657028  0.05891731     0.19100
C381        C  0.03778232  0.29715900  0.44378828    -0.06700
C382        C  0.03364938  0.31949058  0.42602278    -0.17900
C383        C  0.02844638  0.31546631  0.39736898     0.10500
C384        C  0.02772768  0.28851441  0.38608145    -0.06600
C385        C  0.03004705  0.26620465  0.40420540    -0.17900
C386        C  0.03507206  0.27026312  0.43265079     0.10500
S387        S  0.02278256  0.34481971  0.37541520    -0.32900
S388        S  0.54137681  0.23953287  0.45432060    -0.32900
H389        H  0.02188580  0.25028960  0.47454885     0.28500
H390        H  0.02345172  0.36471638  0.39672091     0.28500
H391        H  0.03615284  0.34013893  0.43426588     0.19100
H392        H  0.02911737  0.24543607  0.39596782     0.19100
C393        C  0.03419267  0.41738888  0.02337577    -0.06700
C394        C  0.04338133  0.40137909  0.04559550    -0.17900
C395        C  0.04804858  0.37329476  0.04226454     0.10500
C396        C  0.04371054  0.36061236  0.01605171    -0.06600
C397        C  0.03058727  0.37789159  0.49475025    -0.17900
C398        C  0.02556630  0.40596450  0.49787943     0.10500
S399        S  0.56054523  0.35596510  0.07133142    -0.32900
S400        S  0.01188498  0.42312133  0.46800849    -0.32900
H401        H  0.03250700  0.44445338  0.46826550     0.28500
H402        H  0.04838288  0.32893832  0.06406995     0.28500
H403        H  0.04707046  0.41082272  0.06576110     0.19100
H404        H  0.02619355  0.36794086  0.47498825     0.19100
C405        C  0.01021545  0.10854921  0.29314868    -0.06700
C406        C  0.98726753  0.12376773  0.30093369    -0.17900
C407        C  0.98680340  0.15216795  0.29610869     0.10500
C408        C  0.01027743  0.16596420  0.28393090    -0.06600
C409        C  0.03239256  0.15028103  0.27434932    -0.17900
C410        C  0.03270440  0.12182972  0.27903615     0.10500
S411        S  0.95588879  0.17022566  0.30517500    -0.32900
S412        S  0.06286304  0.10393992  0.26762912    -0.32900
H413        H  0.06316627  0.08512870  0.28976360     0.28500
H414        H  0.93857384  0.14676431  0.31025864     0.28500
H415        H  0.96999884  0.11341138  0.31167181     0.19100
H416        H  0.05027857  0.16044545  0.26445082     0.19100
C417        C  0.44918426  0.03875885  0.28795174    -0.06700
C418        C  0.43759093  0.06178672  0.27560712    -0.17900
C419        C  0.40872358  0.06303994  0.27143083     0.10500
C420        C  0.39085582  0.04022880  0.27860682    -0.06600
C421        C  0.40290517  0.01644196  0.28887087    -0.17900
C422        C  0.43157708  0.01536950  0.29328225     0.10500
S423        S  0.39597110  0.09522859  0.25942419    -0.32900
S424        S  0.44452916  0.98333709  0.30547400    -0.32900
H425        H  0.47033086  0.98704668  0.29199815     0.28500
H426        H  0.37386979  0.09556866  0.27872079     0.28500
H427        H  0.45078535  0.07971961  0.27100048     0.19100
H428        H  0.38983006  0.99838305  0.29360592     0.19100
C429        C  0.02205851  0.03257644  0.42851650    -0.06700
C430        C  0.99798326  0.04434300  0.41869485    -0.17900
C431        C  0.99454787  0.04967621  0.39032739     0.10500
C432        C  0.01499399  0.04123438  0.37095311    -0.06600
C433        C  0.03978633  0.03069581  0.38152957    -0.17900
C434        C  0.04332679  0.02603352  0.40986234     0.10500
S435        S  0.96494244  0.06902915  0.37989096    -0.32900
S436        S  0.05967144  0.49120960  0.42256545    -0.32900
H437        H  0.06808328  0.50389105  0.44760380     0.28500
H438        H  0.95112572  0.06887012  0.40577567     0.28500
H439        H  0.98238451  0.05044210  0.43357488     0.19100
H440        H  0.05721979  0.02662066  0.36817696     0.19100
C441        C  0.29524494  0.37203664  0.29260882    -0.06700
C442        C  0.31883409  0.39012505  0.28965432    -0.17900
C443        C  0.31665975  0.41808409  0.28392893     0.10500
C444        C  0.29028215  0.42935054  0.28168803    -0.06600
C445        C  0.26653967  0.41202874  0.28522258    -0.17900
C446        C  0.26861881  0.38382371  0.29134204     0.10500
S447        S  0.34868510  0.43829723  0.27948042    -0.32900
S448        S  0.23699260  0.36375106  0.29887425    -0.32900
H449        H  0.21835493  0.38514530  0.29640238     0.28500
H450        H  0.33854594  0.45564359  0.25879112     0.28500
H451        H  0.33959648  0.38333764  0.29243154     0.19100
H452        H  0.24631259  0.42094684  0.28427037     0.19100
C453        C  0.35810551  0.29091030  0.30133218    -0.06700
C454        C  0.36542645  0.27460350  0.27850602    -0.17900
C455        C  0.39315481  0.26782925  0.27387097     0.10500
C456        C  0.41384251  0.27712881  0.29278171    -0.06600
C457        C  0.40621639  0.29182957  0.31646261    -0.17900
C458        C  0.37883941  0.29932933  0.32076398     0.10500
S459        S  0.40095532  0.24832225  0.24303519    -0.32900
S460        S  0.37301484  0.32128686  0.35050309    -0.32900
H461        H  0.34421995  0.32299097  0.34894273     0.28500
H462        H  0.42535695  0.23701942  0.25315052     0.28500
H463        H  0.34974210  0.26847725  0.26335666     0.19100
H464        H  0.42213838  0.29905078  0.33092120     0.19100
C465        C  0.28864800  0.29418075  0.36271621    -0.06700
C466        C  0.31077953  0.28015739  0.37434057    -0.17900
C467        C  0.31110888  0.27331891  0.40270111     0.10500
C468        C  0.28845276  0.27991379  0.41991037    -0.06600
C469        C  0.26556935  0.29240281  0.40802305    -0.17900
C470        C  0.26539954  0.29962037  0.37976216     0.10500
S471        S  0.34135503  0.25692805  0.41577054    -0.32900
S472        S  0.23487405  0.31565702  0.36687279    -0.32900
H473        H  0.23756590  0.30637527  0.33931588     0.28500
H474        H  0.32781565  0.24301355  0.43792997     0.28500
H475        H  0.32855969  0.27547322  0.36151247     0.19100
H476        H  0.24798478  0.29731012  0.42107104     0.19100
C477        C  0.29527493  0.34008127  0.80019112     0.85900
C478        C  0.32485046  0.32945626  0.79598373    -0.54400
C479        C  0.32725692  0.30218500  0.80110047     0.08800
C480        C  0.29972871  0.28699232  0.80886854     0.19800
C481        C  0.27744468  0.32150625  0.78086825    -0.55100
C482        C  0.27946469  0.29384949  0.78530537     0.08900
C483        C  0.28707446  0.33054636  0.82982023    -0.54600
C484        C  0.28932303  0.30290313  0.83445875     0.09500
H485        H  0.34309621  0.34153565  0.78968646     0.14000
H486        H  0.30163430  0.26462425  0.81262632    -0.00300
H487        H  0.26325114  0.32965098  0.76579873     0.14300
H488        H  0.28123642  0.34472784  0.84612807     0.14100
C489        C  0.01152387  0.04566204  0.83967551     0.85900
C490        C  0.48175312  0.03674698  0.82771361    -0.54400
C491        C  0.47714313  0.04107388  0.80004431     0.08800
C492        C  0.50317577  0.05316046  0.78456159     0.19800
C493        C  0.03008840  0.02881947  0.82060825    -0.55100
C494        C  0.02660775  0.03318142  0.79292763     0.08900
C495        C  0.01761425  0.07548732  0.83081525    -0.54600
C496        C  0.01353850  0.08045593  0.80325317     0.09500
H497        H  0.46546440  0.02898993  0.84168347     0.14000
H498        H  0.49982608  0.05662203  0.76202386    -0.00300
H499        H  0.04294172  0.01239705  0.82734355     0.14300
H500        H  0.02291150  0.09183136  0.84553599     0.14100
C501        C  0.09224601  0.30379331  0.50223256     0.85900
C502        C  0.08340698  0.33276303  0.51000954    -0.54400
C503        C  0.05538714  0.33633161  0.50875560     0.08800
C504        C  0.03620645  0.30785473  0.99978306     0.19800
C505        C  0.07455923  0.28439499  0.52070115    -0.55100
C506        C  0.04660899  0.28777252  0.51955627     0.08900
C507        C  0.07732321  0.29435524  0.97403074    -0.54600
C508        C  0.04967263  0.29895530  0.97190521     0.09500
H509        H  0.09813414  0.34914987  0.51609641     0.14000
H510        H  0.01372029  0.31176508  0.99825615    -0.00300
H511        H  0.08353340  0.26835088  0.53309779     0.14300
H512        H  0.08858723  0.28737257  0.95599531     0.14100
C513        C  0.21375281  0.25935096  0.75451979     0.85900
C514        C  0.22237665  0.22974775  0.75935222    -0.54400
C515        C  0.25013236  0.22566252  0.75607227     0.08800
C516        C  0.26746436  0.25234255  0.74927991     0.19800
C517        C  0.23179902  0.27715980  0.77414997    -0.55100
C518        C  0.25972820  0.27369592  0.77181036     0.08900
C519        C  0.22593637  0.26653018  0.72540587    -0.54600
C520        C  0.25384176  0.26300263  0.72264617     0.09500
H521        H  0.20737639  0.21297143  0.76355511     0.14000
H522        H  0.29013426  0.24942071  0.74696887    -0.00300
H523        H  0.22318725  0.29258884  0.78772798     0.14300
H524        H  0.21428473  0.27310699  0.70765698     0.14100
C525        C  0.29757843  0.46599458  0.54921795     0.85900
C526        C  0.28931235  0.47798962  0.57776651    -0.54400
C527        C  0.29439824  0.00528435  0.57954213     0.08800
C528        C  0.30718591  0.01910901  0.55355146     0.19800
C529        C  0.28103971  0.48278569  0.52845908    -0.55100
C530        C  0.28649790  0.01090278  0.53029300     0.08900
C531        C  0.32784009  0.47589164  0.54530745    -0.54600
C532        C  0.33342321  0.00272723  0.54729965     0.09500
H533        H  0.28083303  0.46641468  0.59520794     0.14000
H534        H  0.31131325  0.04158468  0.55580553    -0.00300
H535        H  0.26730519  0.47332532  0.51302716     0.14300
H536        H  0.34455593  0.46196162  0.54142282     0.14100
C537        C  0.01165317  0.21993914  0.54440741     0.85900
C538        C  0.48327134  0.22915188  0.53880373    -0.54400
C539        C  0.47842984  0.25610121  0.54358555     0.08800
C540        C  0.50370347  0.27284795  0.55547943     0.19800
C541        C  0.03166727  0.23965961  0.52843977    -0.55100
C542        C  0.02748400  0.26693148  0.53280840     0.08900
C543        C  0.01546593  0.22875188  0.57481274    -0.54600
C544        C  0.01158793  0.25589773  0.58006418     0.09500
H545        H  0.46739454  0.21489576  0.53058484     0.14000
H546        H  0.50001740  0.29495908  0.55909184    -0.00300
H547        H  0.04814752  0.23355387  0.51472637     0.14300
H548        H  0.02072540  0.21441175  0.59109995     0.14100
C549        C  0.25364965  0.04634119  0.96664501     0.85900
C550        C  0.26178898  0.07498676  0.97795220    -0.54400
C551        C  0.26125869  0.07873329  0.50530583     0.08800
C552        C  0.25203294  0.05227245  0.52112386     0.19800
C553        C  0.27114273  0.02630896  0.98302350    -0.55100
C554        C  0.27272197  0.03039590  0.51170353     0.08900
C555        C  0.22386408  0.04091164  0.97810638    -0.54600
C556        C  0.22439546  0.04296903  0.50706825     0.09500
H557        H  0.26802497  0.09218667  0.96460683     0.14000
H558        H  0.25030869  0.05489658  0.54403186    -0.00300
H559        H  0.28379022  0.01109122  0.97301562     0.14300
H560        H  0.20548325  0.03641332  0.96586054     0.14100
C561        C  0.04284639  0.46628875  0.75560175     0.85900
C562        C  0.07404328  0.47270756  0.75951057    -0.54400
C563        C  0.08307661  0.99929673  0.75560215     0.08800
C564        C  0.05857902  0.01812713  0.74982777     0.19800
C565        C  0.02824415  0.48542623  0.77576909    -0.55100
C566        C  0.03715698  0.01250062  0.77329831     0.08900
C567        C  0.03626409  0.47859353  0.72691068    -0.54600
C568        C  0.04441161  0.00505073  0.72436126     0.09500
H569        H  0.08877941  0.45688763  0.76366069     0.14000
H570        H  0.06490485  0.04015238  0.74707149    -0.00300
H571        H  0.01344807  0.47797224  0.79134966     0.14300
H572        H  0.02605562  0.46790147  0.70983040     0.14100
Zn573      Zn  0.05222097  0.05121503  0.51096039     1.49700
Zn574      Zn  0.00712582  0.04598656  0.55927666     1.49400
Zn575      Zn  0.00465539  0.00227375  0.51128572     1.49100
Zn576      Zn  0.05570048  0.00232711  0.55395560     1.49500
O577        O  0.03006382  0.02526162  0.53384810    -1.84700
O578        O  0.04188619  0.09022635  0.51822795    -0.75400
O579        O  0.46557349  0.03647208  0.55629400    -0.75200
O580        O  0.00575555  0.01149262  0.97162629    -0.74700
O581        O  0.01188711  0.08618265  0.55305299    -0.75400
O582        O  0.03915764  0.04461406  0.97225078    -0.75000
O583        O  0.46369018  0.00609216  0.52184887    -0.75600
O584        O  0.04747698  0.46258728  0.54400607    -0.74900
O585        O  0.01799583  0.03939859  0.59821083    -0.75700
O586        O  0.01305439  0.46307450  0.51346958    -0.75100
O587        O  0.05102668  0.00867343  0.59520979    -0.75600
O588        O  0.09617068  0.01273277  0.54533490    -0.75500
O589        O  0.09365776  0.04904565  0.51770549    -0.75300
C590        C  0.02594293  0.10104394  0.53595894     0.76500
C591        C  0.45172413  0.02030884  0.54031674     0.77000
C592        C  0.02148908  0.02933130  0.95931905     0.76000
C593        C  0.03092880  0.45005098  0.52708827     0.76400
C594        C  0.03581744  0.02444271  0.60940896     0.77500
C595        C  0.10789962  0.03229388  0.53147472     0.76500
Zn596      Zn  0.30610959  0.05867299  0.74810862     1.49700
Zn597      Zn  0.25896844  0.50676409  0.74905756     1.49400
Zn598      Zn  0.30299061  0.01656647  0.79842374     1.49100
Zn599      Zn  0.25248292  0.05790517  0.78837177     1.49500
O600        O  0.28043704  0.03492434  0.77075169    -1.84700
O601        O  0.30050034  0.04869261  0.70782455    -0.75400
O602        O  0.26744351  0.46747417  0.76104569    -0.75200
O603        O  0.34428781  0.02535227  0.79347880    -0.74700
O604        O  0.27068497  0.01243590  0.70813439    -0.75400
O605        O  0.34727587  0.05357137  0.75736604    -0.75000
O606        O  0.29703455  0.47516548  0.79576739    -0.75600
O607        O  0.25481351  0.05364377  0.83001214    -0.74900
O608        O  0.21826241  0.00941202  0.75179279    -0.75700
O609        O  0.29101695  0.02728361  0.83690955    -0.75100
O610        O  0.21252830  0.04652368  0.77740782    -0.75600
O611        O  0.25944174  0.09828366  0.77852464    -0.75500
O612        O  0.29755455  0.09934896  0.75198786    -0.75300
C613        C  0.28636651  0.02992832  0.69509767     0.76500
C614        C  0.28313211  0.45864099  0.78010575     0.77000
C615        C  0.35892104  0.03978708  0.77630654     0.76000
C616        C  0.27101580  0.04112125  0.84613571     0.76400
C617        C  0.20222631  0.02628066  0.76349737     0.77500
C618        C  0.27794408  0.11154244  0.76427083     0.76500
Zn619      Zn  0.26197546  0.29287618  0.55208015     1.49700
Zn620      Zn  0.31126360  0.29470665  0.50676942     1.49400
Zn621      Zn  0.30492089  0.24517674  0.55184237     1.52700
Zn622      Zn  0.25881456  0.24703115  0.00217699     1.49500
O623        O  0.28501348  0.27064712  0.52802995    -1.84700
O624        O  0.27434684  0.33219980  0.54982672    -0.75400
O625        O  0.35072620  0.28572518  0.51558042    -0.75200
O626        O  0.29710521  0.25133209  0.59305688    -0.74700
O627        O  0.30730244  0.33473841  0.51740378    -0.75400
O628        O  0.26457764  0.28226934  0.59246690    -0.75000
O629        O  0.34636845  0.25180342  0.54660370    -0.75600
O630        O  0.26191077  0.20944512  0.50955568    -0.74900
O631        O  0.30208683  0.28855692  0.96506628    -0.75700
O632        O  0.29298073  0.20534367  0.54327420    -0.75100
O633        O  0.26925935  0.25518531  0.96184052    -0.75600
O634        O  0.22151531  0.26211303  0.50508823    -0.75500
O635        O  0.22215995  0.29206638  0.53986779    -0.75300
C636        C  0.29202894  0.34614940  0.53545965     0.76500
C637        C  0.36135040  0.26880161  0.53225037     0.77000
C638        C  0.27999870  0.26625461  0.60583603     0.76000
C639        C  0.27509231  0.19463224  0.52651370     0.76400
C640        C  0.28612117  0.27274258  0.95053499     0.77500
C641        C  0.20934150  0.27942286  0.52028522     0.76500
Zn642      Zn  0.04455488  0.29702114  0.79744172     1.49700
Zn643      Zn  0.99249360  0.29450728  0.75459919     1.49400
Zn644      Zn  0.03631401  0.24793176  0.75286468     1.49100
Zn645      Zn  0.99577368  0.25252727  0.80654203     1.49500
O646        O  0.01722463  0.27299896  0.77789876    -1.84700
O647        O  0.04032920  0.33610068  0.78558838    -0.75400
O648        O  0.99691131  0.28738677  0.71299454    -0.75200
O649        O  0.07785604  0.25368842  0.75652499    -0.74700
O650        O  0.00227817  0.33479384  0.75939747    -0.75400
O651        O  0.08403911  0.28651738  0.78852588    -0.75000
O652        O  0.02769092  0.25484227  0.71210350    -0.75600
O653        O  0.00044422  0.21167254  0.80086734    -0.74900
O654        O  0.45161260  0.28691795  0.76751274    -0.75700
O655        O  0.02595733  0.20823107  0.76239215    -0.75100
O656        O  0.45441193  0.25902702  0.80411001    -0.75600
O657        O  0.00652073  0.26405325  0.84648698    -0.75500
O658        O  0.03907756  0.29678173  0.83926462    -0.75300
C659        C  0.02240424  0.34806305  0.77102943     0.76500
C660        C  0.01198988  0.27111555  0.69935769     0.77000
C661        C  0.09370399  0.26941052  0.77121499     0.76000
C662        C  0.01198007  0.19707935  0.78231530     0.76400
C663        C  0.44029610  0.27302379  0.78730792     0.77500
C664        C  0.02341694  0.28274183  0.85579883     0.76500
C665        C  0.11308616  0.00847078  0.75497282    -0.06700
C666        C  0.12252838  0.02935708  0.77314757    -0.17900
C667        C  0.15110996  0.03585036  0.77648660     0.10500
C668        C  0.17119722  0.02166567  0.76068498    -0.06600
C669        C  0.16130615  0.00172096  0.74146461    -0.17900
C670        C  0.13287638  0.99513575  0.73830937     0.10500
S671        S  0.16018575  0.06136984  0.80238725    -0.32900
S672        S  0.12245100  0.47080942  0.71201639    -0.32900
H673        H  0.09559488  0.47966766  0.70697329     0.28500
H674        H  0.17771365  0.04388053  0.81675818     0.28500
H675        H  0.10757017  0.03973737  0.78597254     0.19100
H676        H  0.17588281  0.99091254  0.72859929     0.19100
C677        C  0.03557994  0.43555625  0.76017529    -0.06700
C678        C  0.02792288  0.41835064  0.73750947    -0.17900
C679        C  0.02293004  0.39001900  0.74063308     0.10500
C680        C  0.02558187  0.37804966  0.76706232    -0.06600
C681        C  0.03341877  0.39464400  0.78975374    -0.17900
C682        C  0.03866189  0.42305101  0.78672556     0.10500
S683        S  0.01584235  0.36902982  0.71009113    -0.32900
S684        S  0.05068267  0.44242033  0.81690863    -0.32900
H685        H  0.04694938  0.42128743  0.83668054     0.28500
H686        H  0.01374527  0.39055133  0.69080278     0.28500
H687        H  0.02720221  0.42620523  0.71671202     0.19100
H688        H  0.03592329  0.38509331  0.80988213     0.19100
C689        C  0.04144126  0.01865236  0.69743412    -0.06700
C690        C  0.06569666  0.02419279  0.68189427    -0.17900
C691        C  0.06447416  0.02745763  0.65307640     0.10500
C692        C  0.03840730  0.02527510  0.63974615    -0.06600
C693        C  0.01399833  0.02286935  0.65576641    -0.17900
C694        C  0.01524527  0.01953791  0.68453085     0.10500
S695        S  0.09679408  0.03359791  0.63449630    -0.32900
S696        S  0.48394386  0.51748315  0.70424583    -0.32900
H697        H  0.99362250  0.52239626  0.73021369     0.28500
H698        H  0.08554178  0.04964416  0.61332768     0.28500
H699        H  0.08579636  0.02410178  0.69194125     0.19100
H700        H  0.99388464  0.02207585  0.64567223     0.19100
C701        C  0.26373802  0.10677504  0.51725126    -0.06700
C702        C  0.24125314  0.12379613  0.51346929    -0.17900
C703        C  0.24374011  0.15210882  0.51841698     0.10500
C704        C  0.26977939  0.16425685  0.52625573    -0.06600
C705        C  0.29174881  0.14689067  0.53199996    -0.17900
C706        C  0.28910695  0.11838098  0.52732802     0.10500
S707        S  0.21275513  0.17138488  0.51446506    -0.32900
S708        S  0.32308526  0.09911051  0.01308110    -0.32900
H709        H  0.31164690  0.07269814  0.01844500     0.28500
H710        H  0.21894512  0.18960592  0.53657228     0.28500
H711        H  0.22179379  0.11509123  0.50554154     0.19100
H712        H  0.31166912  0.15572837  0.53858092     0.19100
C713        C  0.25822252  0.04440322  0.93496744    -0.06700
C714        C  0.23608203  0.03712100  0.91684918    -0.17900
C715        C  0.23977490  0.03579835  0.88804552     0.10500
C716        C  0.26614350  0.04202237  0.87637334    -0.06600
C717        C  0.28848863  0.04870926  0.89391612    -0.17900
C718        C  0.28494343  0.05016991  0.92288605     0.10500
S719        S  0.20706185  0.53057418  0.86800630    -0.32900
S720        S  0.31500602  0.05963426  0.94381359    -0.32900
H721        H  0.33340169  0.06659170  0.92185672     0.28500
H722        H  0.22020504  0.51312427  0.84909869     0.28500
H723        H  0.21554792  0.03178019  0.92441321     0.19100
H724        H  0.30877570  0.05310972  0.88473406     0.19100
C725        C  0.13873211  0.03494968  0.53048270    -0.06700
C726        C  0.15369806  0.01134835  0.52509515    -0.17900
C727        C  0.18242952  0.01312238  0.52030830     0.10500
C728        C  0.19686526  0.03896234  0.52100238    -0.06600
C729        C  0.17689942  0.06376964  0.01837352    -0.17900
C730        C  0.14832607  0.06182196  0.02437708     0.10500
S731        S  0.19956763  0.98192256  0.51200438    -0.32900
S732        S  0.12892674  0.09288453  0.02404662    -0.32900
H733        H  0.15173899  0.11159092  0.02064481     0.28500
H734        H  0.22429712  0.99039650  0.52539444     0.28500
H735        H  0.14275527  0.99152430  0.52332710     0.19100
H736        H  0.18607767  0.08307625  0.01114326     0.19100
C737        C  0.01221448  0.27125710  0.66815322    -0.06700
C738        C  0.03627776  0.26265178  0.65443441    -0.17900
C739        C  0.03773875  0.26072398  0.62538180     0.10500
C740        C  0.01439150  0.26673692  0.60907009    -0.06600
C741        C  0.49044758  0.27688553  0.62477343    -0.17900
C742        C  0.48880736  0.27782742  0.65400556     0.10500
S743        S  0.07003987  0.25020663  0.61022274    -0.32900
S744        S  0.45539117  0.28464042  0.66905962    -0.32900
H745        H  0.45611463  0.26316622  0.68861256     0.28500
H746        H  0.06646427  0.26351218  0.58459349     0.28500
H747        H  0.05424418  0.25722423  0.66644824     0.19100
H748        H  0.47216657  0.28097626  0.61285524     0.19100
C749        C  0.45002301  0.26590394  0.54024133    -0.06700
C750        C  0.43303928  0.26606936  0.56398541    -0.17900
C751        C  0.40430904  0.26837256  0.56200898     0.10500
C752        C  0.39183894  0.26936019  0.53549604    -0.06600
C753        C  0.40886069  0.27011754  0.51164390    -0.17900
C754        C  0.43777171  0.26827260  0.51372512     0.10500
S755        S  0.38477746  0.26967538  0.59413307    -0.32900
S756        S  0.45759348  0.26692903  0.48178588    -0.32900
H757        H  0.48321072  0.27546039  0.49331936     0.28500
H758        H  0.36511739  0.28790175  0.58425039     0.28500
H759        H  0.44190205  0.26264762  0.58419970     0.19100
H760        H  0.39948845  0.27102609  0.49121350     0.19100
C761        C  0.02299740  0.13132030  0.53693364    -0.06700
C762        C  0.50055389  0.14203603  0.55423647    -0.17900
C763        C  0.49709563  0.17025717  0.55761314     0.10500
C764        C  0.01486250  0.18886631  0.54081600    -0.06600
C765        C  0.03645052  0.17836389  0.52439215    -0.17900
C766        C  0.04103432  0.15025203  0.52278278     0.10500
S767        S  0.46891378  0.18108676  0.57981997    -0.32900
S768        S  0.07126346  0.14047015  0.50334148    -0.32900
H769        H  0.08166146  0.12482292  0.52529722     0.28500
H770        H  0.45913947  0.15486843  0.58856782     0.28500
H771        H  0.48571224  0.12771626  0.56392411     0.19100
H772        H  0.05094117  0.19157314  0.51316532     0.19100
C773        C  0.28789216  0.02830454  0.66436738    -0.06700
C774        C  0.26301126  0.51947536  0.65050785    -0.17900
C775        C  0.26359230  0.51532389  0.62171748     0.10500
C776        C  0.28986528  0.01912445  0.60648404    -0.06600
C777        C  0.31300036  0.03078687  0.62027421    -0.17900
C778        C  0.31256814  0.03483405  0.64911507     0.10500
S779        S  0.23179047  0.50368778  0.60490286    -0.32900
S780        S  0.34500514  0.04542122  0.66525225    -0.32900
H781        H  0.34278984  0.02569804  0.68663006     0.28500
H782        H  0.23938043  0.51312606  0.57814170     0.28500
H783        H  0.24375756  0.51511356  0.66175456     0.19100
H784        H  0.33224915  0.03450986  0.60899988     0.19100
C785        C  0.29470514  0.43461125  0.54516672    -0.06700
C786        C  0.28778477  0.41709440  0.56777462    -0.17900
C787        C  0.28819205  0.38853831  0.56552535     0.10500
C788        C  0.29428460  0.37629972  0.53965561    -0.06600
C789        C  0.30131662  0.39331048  0.51698601    -0.17900
C790        C  0.30197766  0.42209619  0.51941667     0.10500
S791        S  0.28252277  0.36910774  0.59721611    -0.32900
S792        S  0.30650479  0.44087571  0.98830547    -0.32900
H793        H  0.32404025  0.42068046  0.47392142     0.28500
H794        H  0.30321139  0.35020746  0.59146520     0.28500
H795        H  0.28326654  0.42492849  0.58813064     0.19100
H796        H  0.30595551  0.38397669  0.49710126     0.19100
C797        C  0.42107758  0.01835380  0.54280242    -0.06700
C798        C  0.40530324  0.01701186  0.51831195    -0.17900
C799        C  0.37625004  0.01488900  0.51927574     0.10500
C800        C  0.36236561  0.01387348  0.54522995    -0.06600
C801        C  0.37666074  0.51934135  0.56926593    -0.17900
C802        C  0.40574791  0.52184952  0.56879421     0.10500
S803        S  0.35798579  0.01166215  0.48674750    -0.32900
S804        S  0.42306925  0.52454950  0.60193780    -0.32900
H805        H  0.44352149  0.50571875  0.59519538     0.28500
H806        H  0.33429893  0.02478396  0.49633055     0.28500
H807        H  0.41569521  0.01745472  0.49822748     0.19100
H808        H  0.36624159  0.51808363  0.58918527     0.19100
C809        C  0.26084396  0.19727899  0.75490787    -0.06700
C810        C  0.28155252  0.18968505  0.77359996    -0.17900
C811        C  0.28884594  0.16202454  0.77628331     0.10500
C812        C  0.27494248  0.14143992  0.76010412    -0.06600
C813        C  0.25543934  0.14928536  0.74046154    -0.17900
C814        C  0.24855594  0.17675375  0.73733794     0.10500
S815        S  0.31465268  0.15423093  0.80185760    -0.32900
S816        S  0.22347070  0.18378078  0.71071514    -0.32900
H817        H  0.23317071  0.21073521  0.70519257     0.28500
H818        H  0.32322379  0.12975631  0.78954330     0.28500
H819        H  0.29125786  0.20518305  0.78700266     0.19100
H820        H  0.24503435  0.13368260  0.72766968     0.19100
C821        C  0.18225261  0.26271288  0.75917457    -0.06700
C822        C  0.16480559  0.27048901  0.73717432    -0.17900
C823        C  0.13627395  0.27343624  0.74090264     0.10500
C824        C  0.12403854  0.26834449  0.76713476    -0.06600
C825        C  0.14084780  0.26090164  0.78934112    -0.17900
C826        C  0.16959819  0.25769901  0.78571410     0.10500
S827        S  0.11656462  0.28416211  0.71119209    -0.32900
S828        S  0.18951697  0.24663373  0.81525990    -0.32900
H829        H  0.16740727  0.24413105  0.83447093     0.28500
H830        H  0.09758399  0.29963031  0.72638800     0.28500
H831        H  0.17260396  0.27439324  0.71653200     0.19100
H832        H  0.13118607  0.25689123  0.80941140     0.19100
C833        C  0.26769421  0.26634592  0.69501594    -0.06700
C834        C  0.27884783  0.24325807  0.68224999    -0.17900
C835        C  0.28358463  0.24251155  0.65335316     0.10500
C836        C  0.27790583  0.26577081  0.63681791    -0.06600
C837        C  0.26924291  0.28966649  0.65027769    -0.17900
C838        C  0.26437289  0.29025536  0.67896118     0.10500
S839        S  0.29420855  0.21040806  0.63882971    -0.32900
S840        S  0.25340988  0.32203709  0.69395440    -0.32900
H841        H  0.26578363  0.31730297  0.71977883     0.28500
H842        H  0.27410109  0.20989289  0.61765282     0.28500
H843        H  0.28160429  0.22483381  0.69440791     0.19100
H844        H  0.26582777  0.30807504  0.63829774     0.19100
C845        C  0.12350474  0.29927412  0.50637520    -0.06700
C846        C  0.13797726  0.28770297  0.98486165    -0.17900
C847        C  0.16835612  0.28444749  0.48787002     0.10500
C848        C  0.17992085  0.28567106  0.51483033    -0.06600
C849        C  0.16357031  0.29474902  0.53698502    -0.17900
C850        C  0.13578251  0.30149090  0.53323917     0.10500
S851        S  0.18598927  0.27538386  0.95750939    -0.32900
S852        S  0.11648952  0.31251583  0.56344343    -0.32900
H853        H  0.13599482  0.30580180  0.58377894     0.28500
H854        H  0.18858264  0.24717892  0.96286338     0.28500
H855        H  0.13097767  0.28914865  0.96372320     0.19100
H856        H  0.17263984  0.29637923  0.55752316     0.19100
C857        C  0.03566063  0.29531567  0.94437840    -0.06700
C858        C  0.03531482  0.31799943  0.92641763    -0.17900
C859        C  0.03023190  0.31468866  0.89768970     0.10500
C860        C  0.02548812  0.28794344  0.88642199    -0.06600
C861        C  0.02424740  0.26546506  0.90470455    -0.17900
C862        C  0.02949866  0.26883709  0.93324134     0.10500
S863        S  0.03009337  0.34481264  0.87570914    -0.32900
S864        S  0.53079497  0.23774963  0.95549490    -0.32900
H865        H  0.01713122  0.25092743  0.97663618     0.28500
H866        H  0.03368180  0.36451121  0.89700192     0.28500
H867        H  0.04076556  0.33819738  0.93463707     0.19100
H868        H  0.02050458  0.24488944  0.89651069     0.19100
C869        C  0.03310684  0.41980160  0.52299936    -0.06700
C870        C  0.04415857  0.40436960  0.54470721    -0.17900
C871        C  0.04904100  0.37637982  0.54151084     0.10500
C872        C  0.04353883  0.36324049  0.51576120    -0.06600
C873        C  0.03346697  0.37617036  0.99417129    -0.17900
C874        C  0.02924097  0.40437017  0.99728767     0.10500
S875        S  0.56238902  0.35808566  0.57187736    -0.32900
S876        S  0.02037666  0.42288378  0.96631310    -0.32900
H877        H  0.03990583  0.44467191  0.97102269     0.28500
H878        H  0.05109858  0.33241988  0.56363692     0.28500
H879        H  0.04925465  0.41421767  0.56438488     0.19100
H880        H  0.03063891  0.36675131  0.97389576     0.19100
C881        C  0.01156241  0.10910186  0.79341348    -0.06700
C882        C  0.98954211  0.12414595  0.80387872    -0.17900
C883        C  0.98813217  0.15245990  0.79920639     0.10500
C884        C  0.00992752  0.16649125  0.78442163    -0.06600
C885        C  0.03101872  0.15095583  0.77235416    -0.17900
C886        C  0.03211195  0.12249546  0.77675096     0.10500
S887        S  0.95803639  0.16991664  0.81187174    -0.32900
S888        S  0.06072210  0.10484927  0.76137601    -0.32900
H889        H  0.06200989  0.08375900  0.78117505     0.28500
H890        H  0.94233582  0.14633284  0.82026974     0.28500
H891        H  0.97369987  0.11362793  0.81645945     0.19100
H892        H  0.04754196  0.16120407  0.76042498     0.19100
C893        C  0.44836940  0.03812951  0.78829600    -0.06700
C894        C  0.43695473  0.06087124  0.77522509    -0.17900
C895        C  0.40811694  0.06213463  0.77073177     0.10500
C896        C  0.38998650  0.03972799  0.77862844    -0.06600
C897        C  0.40186851  0.01620155  0.78974508    -0.17900
C898        C  0.43053351  0.01505382  0.79435444     0.10500
S899        S  0.39576942  0.09390749  0.75725050    -0.32900
S900        S  0.44305222  0.98335293  0.80793819    -0.32900
H901        H  0.46941125  0.98654976  0.79549435     0.28500
H902        H  0.37415578  0.09563546  0.77695951     0.28500
H903        H  0.45027361  0.07867590  0.77032497     0.19100
H904        H  0.38865326  0.99840890  0.79507594     0.19100
C905        C  0.01915665  0.03258616  0.92921455    -0.06700
C906        C  0.99911871  0.04992296  0.91902074    -0.17900
C907        C  0.99676391  0.05500219  0.89041757     0.10500
C908        C  0.01449053  0.04168142  0.87124243    -0.06600
C909        C  0.03536456  0.02518795  0.88223481    -0.17900
C910        C  0.03766665  0.02035717  0.91071790     0.10500
S911        S  0.97133810  0.07906540  0.87915433    -0.32900
S912        S  0.06705191  0.50048344  0.92179328    -0.32900
H913        H  0.05454223  0.49038722  0.94640950     0.28500
H914        H  0.96418008  0.08896507  0.90566999     0.28500
H915        H  0.98549760  0.05976886  0.93367694     0.19100
H916        H  0.05075269  0.01606835  0.86926043     0.19100
C917        C  0.29170944  0.37134274  0.79540473    -0.06700
C918        C  0.31505967  0.38938554  0.79066478    -0.17900
C919        C  0.31253939  0.41728383  0.78473365     0.10500
C920        C  0.28611173  0.42862507  0.78403137    -0.06600
C921        C  0.26263450  0.41142155  0.78956360    -0.17900
C922        C  0.26509290  0.38323388  0.79582469     0.10500
S923        S  0.34421219  0.43735029  0.77781570    -0.32900
S924        S  0.23399285  0.36313802  0.80517187    -0.32900
H925        H  0.21589987  0.38509658  0.80676093     0.28500
H926        H  0.33274409  0.45433528  0.75756262     0.28500
H927        H  0.33596499  0.38261502  0.79179286     0.19100
H928        H  0.24237971  0.42034140  0.78976369     0.19100
C929        C  0.35488821  0.28997902  0.80108918    -0.06700
C930        C  0.36182207  0.27248655  0.77904434    -0.17900
C931        C  0.38947876  0.26536202  0.77446802     0.10500
C932        C  0.41041887  0.27548133  0.79269593    -0.06600
C933        C  0.40316157  0.29138717  0.81566117    -0.17900
C934        C  0.37590850  0.29921190  0.81986221     0.10500
S935        S  0.39688826  0.24434145  0.74458407    -0.32900
S936        S  0.37058568  0.32277787  0.84840133    -0.32900
H937        H  0.34160521  0.32132613  0.84941883     0.28500
H938        H  0.42143522  0.23358908  0.75500940     0.28500
H939        H  0.34590962  0.26565905  0.76441734     0.19100
H940        H  0.41928742  0.29926988  0.82956840     0.19100
C941        C  0.28623275  0.29067789  0.86281506    -0.06700
C942        C  0.30925204  0.27834301  0.87474696    -0.17900
C943        C  0.30957922  0.27138032  0.90310045     0.10500
C944        C  0.28603606  0.27601697  0.91989575    -0.06600
C945        C  0.26225666  0.28634342  0.90749331    -0.17900
C946        C  0.26210641  0.29373709  0.87927609     0.10500
S947        S  0.34090302  0.25744581  0.91671940    -0.32900
S948        S  0.23056967  0.30710568  0.86556918    -0.32900
H949        H  0.23481715  0.29814971  0.83809596     0.28500
H950        H  0.32810666  0.24271225  0.93877628     0.28500
H951        H  0.32763800  0.27520709  0.86221935     0.19100
H952        H  0.24396209  0.28963746  0.92014706     0.19100
C953        C  0.29891352  0.84074894  0.29780271     0.85900
C954        C  0.32870809  0.83030207  0.29513855    -0.54400
C955        C  0.33102986  0.80315837  0.30104751     0.08800
C956        C  0.30331525  0.78799394  0.30814203     0.19800
C957        C  0.28197733  0.82160183  0.27832431    -0.55100
C958        C  0.28395618  0.79410850  0.28355503     0.08900
C959        C  0.28979709  0.83196256  0.32740995    -0.54600
C960        C  0.29204280  0.80450465  0.33297288     0.09500
H961        H  0.34717997  0.84243280  0.28966522     0.14000
H962        H  0.30519938  0.76574556  0.31257584    -0.00300
H963        H  0.26806836  0.82931684  0.26276619     0.14300
H964        H  0.28366522  0.84661041  0.34316037     0.14100
C965        C  0.01446326  0.54542080  0.33971411     0.85900
C966        C  0.48215937  0.53452331  0.32738470    -0.54400
C967        C  0.47877129  0.54023418  0.29978607     0.08800
C968        C  0.50535878  0.55320246  0.28601420     0.19800
C969        C  0.03280193  0.52844469  0.32050764    -0.55100
C970        C  0.02880620  0.53266409  0.29289244     0.08900
C971        C  0.02106090  0.57514616  0.33063030    -0.54600
C972        C  0.01651475  0.58004410  0.30318307     0.09500
H973        H  0.46541026  0.52559161  0.34008541     0.14000
H974        H  0.50301484  0.55760904  0.26351986    -0.00300
H975        H  0.04709428  0.51319127  0.32704858     0.14300
H976        H  0.02729906  0.59144545  0.34505948     0.14100
C977        C  0.08959841  0.79861748  0.00466189     0.85900
C978        C  0.08158726  0.82787699  0.01222909    -0.54400
C979        C  0.05379871  0.83227784  0.01080727     0.08800
C980        C  0.03882312  0.80968748  0.49963486     0.19800
C981        C  0.07141881  0.77974398  0.02333345    -0.55100
C982        C  0.04351706  0.78393728  0.02217996     0.08900
C983        C  0.08024096  0.79702204  0.47391121    -0.54600
C984        C  0.05242390  0.80064730  0.47190530     0.09500
H985        H  0.09676089  0.84394375  0.01811630     0.14000
H986        H  0.01617232  0.81278678  0.49818830    -0.00300
H987        H  0.07996001  0.76338018  0.03560031     0.14300
H988        H  0.09152935  0.79008425  0.45588368     0.14100
C989        C  0.21725310  0.75905333  0.25574786     0.85900
C990        C  0.22616552  0.72966600  0.26050404    -0.54400
C991        C  0.25370688  0.72566851  0.25597310     0.08800
C992        C  0.27065161  0.75226448  0.24802390     0.19800
C993        C  0.23605333  0.77733051  0.27421609    -0.55100
C994        C  0.26386328  0.77381098  0.27079730     0.08900
C995        C  0.22802662  0.76634505  0.22615350    -0.54600
C996        C  0.25572224  0.76262308  0.22188285     0.09500
H997        H  0.21143193  0.71291304  0.26564386     0.14000
H998        H  0.29320176  0.74933715  0.24471684    -0.00300
H999        H  0.22816981  0.79342717  0.28741205     0.14300
H1000       H  0.21525033  0.77391009  0.20956914     0.14100
C1001       C  0.29539753  0.96435808  0.04734630     0.85900
C1002       C  0.28719270  0.97577668  0.07621560    -0.54400
C1003       C  0.28920042  0.50453838  0.07949318     0.08800
C1004       C  0.30211178  0.51800904  0.05338715     0.19800
C1005       C  0.27904050  0.98161310  0.02691111    -0.55100
C1006       C  0.28133905  0.50972997  0.03017871     0.08900
C1007       C  0.32577944  0.97421416  0.04389644    -0.54600
C1008       C  0.32826281  0.50146366  0.04738730     0.09500
H1009       H  0.27943109  0.96379915  0.09368401     0.14000
H1010       H  0.30638412  0.54050552  0.05544756    -0.00300
H1011       H  0.26513910  0.97253845  0.01139186     0.14300
H1012       H  0.34248898  0.96028156  0.04001447     0.14100
C1013       C  0.00673149  0.71723661  0.04791146     0.85900
C1014       C  0.48016544  0.72754556  0.04164361    -0.54400
C1015       C  0.47566751  0.75469510  0.04584375     0.08800
C1016       C  0.50093784  0.77127020  0.05784802     0.19800
C1017       C  0.02714506  0.73621910  0.03153971    -0.55100
C1018       C  0.02349407  0.76368912  0.03521418     0.08900
C1019       C  0.01130298  0.72671974  0.07802184    -0.54600
C1020       C  0.00758242  0.75400408  0.08262548     0.09500
H1021       H  0.46424569  0.71332300  0.03344652     0.14000
H1022       H  0.49743450  0.79344801  0.06125999    -0.00300
H1023       H  0.04431218  0.72926229  0.01911683     0.14300
H1024       H  0.01720665  0.71290159  0.09452564     0.14100
C1025       C  0.25575293  0.54597613  0.46672425     0.85900
C1026       C  0.26372557  0.57497494  0.47709072    -0.54400
C1027       C  0.25915272  0.57824275  0.00633257     0.08800
C1028       C  0.24812369  0.55192066  0.02130154     0.19800
C1029       C  0.27320481  0.52647168  0.48371802    -0.55100
C1030       C  0.26770509  0.52928609  0.01156883     0.08900
C1031       C  0.22599801  0.54050151  0.47827717    -0.54600
C1032       C  0.22032451  0.54440476  0.00671557     0.09500
H1033       H  0.26991071  0.59174834  0.46318129     0.14000
H1034       H  0.24628470  0.55402515  0.04426105    -0.00300
H1035       H  0.28566261  0.51081208  0.47419942     0.14300
H1036       H  0.20790222  0.53446587  0.46619049     0.14100
C1037       C  0.04694245  0.96780248  0.25504667     0.85900
C1038       C  0.07819955  0.97500569  0.25737005    -0.54400
C1039       C  0.08591917  0.50024950  0.25527087     0.08800
C1040       C  0.06127405  0.51895812  0.24974799     0.19800
C1041       C  0.03300763  0.98627364  0.27640490    -0.55100
C1042       C  0.03982620  0.51256150  0.27299275     0.08900
C1043       C  0.03897017  0.98035177  0.22685808    -0.54600
C1044       C  0.04737393  0.50631824  0.22393911     0.09500
H1045       H  0.09361141  0.95958591  0.26043384     0.14000
H1046       H  0.06739695  0.54106221  0.24743880    -0.00300
H1047       H  0.01913590  0.97821482  0.29258054     0.14300
H1048       H  0.02966292  0.96944495  0.20944279     0.14100
Zn1049     Zn  0.04764493  0.54986819  0.01257084     1.49700
Zn1050     Zn  0.00206507  0.54283466  0.06003311     1.49400
Zn1051     Zn  0.00167190  0.49961874  0.01137079     1.49100
Zn1052     Zn  0.05250209  0.50095579  0.05482977     1.49500
O1053       O  0.02599924  0.52301694  0.03465262    -1.84700
O1054       O  0.03743395  0.58837961  0.02142843    -0.75400
O1055       O  0.46093162  0.53412356  0.05946279    -0.75200
O1056       O  0.00928507  0.51438655  0.47126487    -0.74700
O1057       O  0.00380457  0.58302814  0.05254800    -0.75400
O1058       O  0.04265227  0.54761075  0.47208564    -0.75000
O1059       O  0.45912759  0.50375917  0.02491490    -0.75600
O1060       O  0.04705339  0.95992951  0.04578819    -0.74900
O1061       O  0.01476796  0.53850867  0.09893194    -0.75700
O1062       O  0.01336312  0.95960713  0.01420556    -0.75100
O1063       O  0.04822327  0.50824105  0.09579044    -0.75600
O1064       O  0.09292984  0.51218424  0.04643122    -0.75500
O1065       O  0.08882238  0.54781024  0.01841559    -0.75300
C1066       C  0.01912066  0.59848454  0.03709409     0.76500
C1067       C  0.44707578  0.51808122  0.04331491     0.77000
C1068       C  0.02527143  0.53204048  0.45910464     0.76000
C1069       C  0.03131708  0.94705662  0.02833449     0.76400
C1070       C  0.03345165  0.52442259  0.10995593     0.77500
C1071       C  0.10388711  0.53192509  0.03225676     0.76500
Zn1072     Zn  0.30806600  0.55900720  0.24765766     1.49700
Zn1073     Zn  0.26065515  0.00753677  0.24937058     1.49400
Zn1074     Zn  0.30564903  0.51679366  0.29800513     1.49100
Zn1075     Zn  0.25524239  0.55827680  0.28944028     1.49500
O1076       O  0.28282696  0.53553660  0.27095116    -1.84700
O1077       O  0.30145896  0.54929438  0.20720008    -0.75400
O1078       O  0.26891063  0.96819085  0.26055474    -0.75200
O1079       O  0.34673791  0.52597004  0.29289241    -0.74700
O1080       O  0.27082589  0.51381997  0.20855164    -0.75400
O1081       O  0.34940875  0.55427050  0.25673301    -0.75000
O1082       O  0.29989324  0.97517076  0.29417533    -0.75600
O1083       O  0.25798920  0.55313705  0.33080819    -0.74900
O1084       O  0.22053860  0.51044887  0.25349142    -0.75700
O1085       O  0.29380834  0.52613937  0.33693161    -0.75100
O1086       O  0.21498380  0.54760728  0.27903067    -0.75600
O1087       O  0.26237320  0.59858099  0.28010989    -0.75500
O1088       O  0.29935673  0.59939377  0.25194721    -0.75300
C1089       C  0.28630363  0.53097105  0.19492708     0.76500
C1090       C  0.28541024  0.95900142  0.27866532     0.77000
C1091       C  0.36115497  0.54051722  0.27565991     0.76000
C1092       C  0.27396220  0.53993707  0.34655762     0.76400
C1093       C  0.20461432  0.52731921  0.26526141     0.77500
C1094       C  0.28036571  0.61165648  0.26509741     0.76500
Zn1095     Zn  0.26067435  0.79105801  0.04974972     1.49700
Zn1096     Zn  0.30909791  0.79296480  0.00323273     1.49400
Zn1097     Zn  0.30441519  0.74474814  0.04976262     1.52700
Zn1098     Zn  0.26148049  0.74967030  0.50109427     1.49500
O1099       O  0.28355857  0.76895314  0.02561444    -1.84700
O1100       O  0.27234119  0.83028036  0.04604003    -0.75400
O1101       O  0.34910194  0.78526026  0.01192937    -0.75200
O1102       O  0.29635015  0.75043727  0.09103579    -0.74700
O1103       O  0.30437892  0.83343154  0.01280102    -0.75400
O1104       O  0.26388038  0.78134891  0.09042275    -0.75000
O1105       O  0.34535113  0.75286142  0.04461852    -0.75600
O1106       O  0.26042373  0.70682172  0.01023920    -0.74900
O1107       O  0.30611960  0.79070208  0.46452100    -0.75700
O1108       O  0.29457872  0.70474861  0.04128222    -0.75100
O1109       O  0.27201684  0.75862306  0.46091262    -0.75600
O1110       O  0.21951502  0.75932637  0.00383726    -0.75500
O1111       O  0.22069420  0.78939104  0.03857838    -0.75300
C1112       C  0.28927118  0.84461007  0.03120390     0.76500
C1113       C  0.35999642  0.76944288  0.02954350     0.77000
C1114       C  0.27926718  0.76534883  0.10384777     0.76000
C1115       C  0.27580882  0.69309399  0.02621980     0.76400
C1116       C  0.28944961  0.77578247  0.44981167     0.77500
C1117       C  0.20756681  0.77655333  0.01935549     0.76500
Zn1118     Zn  0.04857024  0.79769730  0.29755772     1.49700
Zn1119     Zn  0.99605141  0.79504920  0.25636390     1.49400
Zn1120     Zn  0.03969822  0.74798311  0.25375543     1.49100
Zn1121     Zn  0.00012472  0.75215247  0.30743740     1.49500
O1122       O  0.02104765  0.77321484  0.27883508    -1.84700
O1123       O  0.04486242  0.83682434  0.28507288    -0.75400
O1124       O  0.99897098  0.78680738  0.21509858    -0.75200
O1125       O  0.08095575  0.75390942  0.25669387    -0.74700
O1126       O  0.00618897  0.83560261  0.26007265    -0.75400
O1127       O  0.08788325  0.78699022  0.28819928    -0.75000
O1128       O  0.02993495  0.75434644  0.21332931    -0.75600
O1129       O  0.00480157  0.71113069  0.30204918    -0.74900
O1130       O  0.45543681  0.78801215  0.27086501    -0.75700
O1131       O  0.03052793  0.70821555  0.26364493    -0.75100
O1132       O  0.45794020  0.75905728  0.30660201    -0.75600
O1133       O  0.01139746  0.76394205  0.34682876    -0.75500
O1134       O  0.04299324  0.79768835  0.33947187    -0.75300
C1135       C  0.02678719  0.84892989  0.27081940     0.76500
C1136       C  0.01353145  0.77032687  0.20115858     0.77000
C1137       C  0.09718413  0.76973757  0.27080332     0.76000
C1138       C  0.01675525  0.69683252  0.28353359     0.76400
C1139       C  0.44401163  0.77375150  0.29030763     0.77500
C1140       C  0.02776972  0.78311783  0.35600196     0.76500
C1141       C  0.11580786  0.50962735  0.25531935    -0.06700
C1142       C  0.12487799  0.53012887  0.27413322    -0.17900
C1143       C  0.15339387  0.53655008  0.27808980     0.10500
C1144       C  0.17368601  0.52268720  0.26228919    -0.06600
C1145       C  0.16416431  0.50308691  0.24257875    -0.17900
C1146       C  0.13588029  0.49656119  0.23880688     0.10500
S1147       S  0.16213357  0.56146999  0.30467369    -0.32900
S1148       S  0.12605972  0.97811033  0.20780899    -0.32900
H1149       H  0.09805993  0.98433165  0.20517377     0.28500
H1150       H  0.18022846  0.54400885  0.31828772     0.28500
H1151       H  0.10968550  0.54020733  0.28693635     0.19100
H1152       H  0.17893243  0.49251490  0.22972508     0.19100
C1153       C  0.04012026  0.93687663  0.25967924    -0.06700
C1154       C  0.02680970  0.92053337  0.23892483    -0.17900
C1155       C  0.02196183  0.89210963  0.24200525     0.10500
C1156       C  0.03014384  0.87912372  0.26670058    -0.06600
C1157       C  0.04276122  0.89514475  0.28777833    -0.17900
C1158       C  0.04768804  0.92362808  0.28476219     0.10500
S1159       S  0.00723770  0.87259836  0.21310864    -0.32900
S1160       S  0.06403253  0.94247144  0.31327716    -0.32900
H1161       H  0.06582123  0.92034022  0.33188721     0.28500
H1162       H  0.99867650  0.89501322  0.19728918     0.28500
H1163       H  0.02034044  0.92927542  0.21970020     0.19100
H1164       H  0.04883856  0.88517226  0.30680209     0.19100
C1165       C  0.04369756  0.52064504  0.19754178    -0.06700
C1166       C  0.06726453  0.52466612  0.18063279    -0.17900
C1167       C  0.06461605  0.52754843  0.15189423     0.10500
C1168       C  0.03778337  0.52672854  0.14005787    -0.06600
C1169       C  0.01431467  0.52640460  0.15747112    -0.17900
C1170       C  0.01695723  0.52313808  0.18613770     0.10500
S1171       S  0.09613722  0.53113173  0.13148423    -0.32900
S1172       S  0.48583229  0.01561010  0.20429710    -0.32900
H1173       H  0.99483385  0.02122553  0.23231154     0.28500
H1174       H  0.08481992  0.54758461  0.11068013     0.28500
H1175       H  0.08781294  0.52344915  0.18952888     0.19100
H1176       H  0.99368756  0.52668176  0.14854072     0.19100
C1177       C  0.26499370  0.60540381  0.01944895    -0.06700
C1178       C  0.24234010  0.62113999  0.02690094    -0.17900
C1179       C  0.24547878  0.64964497  0.03066143     0.10500
C1180       C  0.27195212  0.66281963  0.02702551    -0.06600
C1181       C  0.29504100  0.64672793  0.02214305    -0.17900
C1182       C  0.29182890  0.61824085  0.01818599     0.10500
S1183       S  0.21480427  0.66811992  0.03926124    -0.32900
S1184       S  0.32435674  0.59987356  0.51781101    -0.32900
H1185       H  0.31231469  0.57321531  0.51758791     0.28500
H1186       H  0.22875418  0.68897971  0.05469353     0.28500
H1187       H  0.22178968  0.61150507  0.02818365     0.19100
H1188       H  0.31551383  0.65659118  0.01984476     0.19100
C1189       C  0.26059175  0.54329497  0.43521170    -0.06700
C1190       C  0.23831128  0.53725579  0.41691466    -0.17900
C1191       C  0.24226355  0.53548885  0.38819571     0.10500
C1192       C  0.26901891  0.54022471  0.37678918    -0.06600
C1193       C  0.29147794  0.54571591  0.39454121    -0.17900
C1194       C  0.28766913  0.54767198  0.42343443     0.10500
S1195       S  0.21248149  0.02188067  0.36841342    -0.32900
S1196       S  0.31776425  0.55646121  0.44462308    -0.32900
H1197       H  0.33670922  0.56215879  0.42279617     0.28500
H1198       H  0.22779167  0.00748812  0.34850244     0.28500
H1199       H  0.21736013  0.53374395  0.42424552     0.19100
H1200       H  0.31201159  0.54913047  0.38556611     0.19100
C1201       C  0.13469433  0.53611941  0.03105071    -0.06700
C1202       C  0.15146725  0.51313407  0.03241342    -0.17900
C1203       C  0.18010139  0.51547052  0.02669515     0.10500
C1204       C  0.19257514  0.54145185  0.02017396    -0.06600
C1205       C  0.18156840  0.56180525  0.52963225    -0.17900
C1206       C  0.15266036  0.56002726  0.53441413     0.10500
S1207       S  0.19927785  0.48439247  0.02685567    -0.32900
S1208       S  0.13495973  0.59004680  0.54606960    -0.32900
H1209       H  0.15883198  0.60739462  0.54921233     0.28500
H1210       H  0.21558413  0.49075323  0.00325467     0.28500
H1211       H  0.14197517  0.49292034  0.03625760     0.19100
H1212       H  0.19269816  0.58134391  0.53175047     0.19100
C1213       C  0.01209221  0.76994297  0.17017806    -0.06700
C1214       C  0.03619658  0.76377928  0.15513856    -0.17900
C1215       C  0.03606196  0.76165742  0.12607481     0.10500
C1216       C  0.01124092  0.76548230  0.11121170    -0.06600
C1217       C  0.48857931  0.77491529  0.12792651    -0.17900
C1218       C  0.48816716  0.77633772  0.15717097     0.10500
S1219       S  0.06807953  0.75315019  0.10904870    -0.32900
S1220       S  0.45531970  0.78311460  0.17349180    -0.32900
H1221       H  0.45708331  0.76208025  0.19340424     0.28500
H1222       H  0.06192368  0.76606801  0.08383002     0.28500
H1223       H  0.05534009  0.76025668  0.16613362     0.19100
H1224       H  0.46958800  0.77794096  0.11677488     0.19100
C1225       C  0.44796239  0.76546445  0.04047878    -0.06700
C1226       C  0.43063532  0.76958600  0.06343424    -0.17900
C1227       C  0.40212432  0.77256917  0.06020732     0.10500
C1228       C  0.39035508  0.77072856  0.03335877    -0.06600
C1229       C  0.40786368  0.76829897  0.01011756    -0.17900
C1230       C  0.43653957  0.76560875  0.01341527     0.10500
S1231       S  0.38180647  0.77799443  0.09128858    -0.32900
S1232       S  0.45723489  0.76076264  0.98253356    -0.32900
H1233       H  0.48194768  0.77194586  0.99394079     0.28500
H1234       H  0.36224853  0.79453076  0.07848769     0.28500
H1235       H  0.43897221  0.76879676  0.08417913     0.19100
H1236       H  0.39902197  0.76720637  0.98942026     0.19100
C1237       C  0.01548582  0.62866811  0.03797595    -0.06700
C1238       C  0.49821230  0.64044674  0.05956442    -0.17900
C1239       C  0.49478792  0.66874672  0.06234122     0.10500
C1240       C  0.00900711  0.68615872  0.04406062    -0.06600
C1241       C  0.02536029  0.67553439  0.02242818    -0.17900
C1242       C  0.02888002  0.64730645  0.01918783     0.10500
S1243       S  0.46758713  0.68004684  0.08547472    -0.32900
S1244       S  0.04953402  0.63600004  0.98998445    -0.32900
H1245       H  0.06154139  0.66181597  0.98260913     0.28500
H1246       H  0.46171518  0.65467411  0.09866436     0.28500
H1247       H  0.48424027  0.62640192  0.07078416     0.19100
H1248       H  0.03470799  0.68892171  0.00696459     0.19100
C1249       C  0.28614983  0.52931148  0.16410959    -0.06700
C1250       C  0.26271513  0.01720502  0.15069416    -0.17900
C1251       C  0.26270597  0.01215920  0.12204127     0.10500
C1252       C  0.28532658  0.51875328  0.10639626    -0.06600
C1253       C  0.30857510  0.53198556  0.11860754    -0.17900
C1254       C  0.30957278  0.53672162  0.14733413     0.10500
S1255       S  0.23076492  0.99910674  0.10650542    -0.32900
S1256       S  0.34233984  0.54931517  0.16130683    -0.32900
H1257       H  0.34301258  0.52908000  0.18216878     0.28500
H1258       H  0.23689446  0.00912927  0.07961531     0.28500
H1259       H  0.24386698  0.01255854  0.16251542     0.19100
H1260       H  0.32700238  0.53640304  0.10618953     0.19100
C1261       C  0.29209436  0.93311872  0.04235983    -0.06700
C1262       C  0.28297077  0.91529753  0.06392256    -0.17900
C1263       C  0.28313495  0.88680069  0.06123402     0.10500
C1264       C  0.29098464  0.87483896  0.03565767    -0.06600
C1265       C  0.29946040  0.89223325  0.01368818    -0.17900
C1266       C  0.30025086  0.92103125  0.01665963     0.10500
S1267       S  0.27471499  0.86719207  0.09228205    -0.32900
S1268       S  0.31796210  0.94159199  0.48990120    -0.32900
H1269       H  0.31727498  0.92020914  0.96879528     0.28500
H1270       H  0.29688031  0.84940493  0.08901370     0.28500
H1271       H  0.27647685  0.92281841  0.08382957     0.19100
H1272       H  0.30533713  0.88317885  0.99402581     0.19100
C1273       C  0.41628700  0.51658698  0.04529039    -0.06700
C1274       C  0.40094848  0.51648270  0.02049678    -0.17900
C1275       C  0.37184249  0.51465529  0.02082695     0.10500
C1276       C  0.35740784  0.51243681  0.04639503    -0.06600
C1277       C  0.37529412  0.01370352  0.06986458    -0.17900
C1278       C  0.40445674  0.01584596  0.06911270     0.10500
S1279       S  0.35416601  0.51341985  0.98790776    -0.32900
S1280       S  0.42238511  0.01370218  0.10186441    -0.32900
H1281       H  0.44345388  0.99704497  0.09174135     0.28500
H1282       H  0.33024991  0.52595904  0.99781900     0.28500
H1283       H  0.41173771  0.51769783  0.00064126     0.19100
H1284       H  0.36497338  0.01007511  0.08966165     0.19100
C1285       C  0.26424380  0.69731326  0.25491550    -0.06700
C1286       C  0.28480194  0.68971911  0.27376036    -0.17900
C1287       C  0.29157057  0.66199266  0.27695849     0.10500
C1288       C  0.27742199  0.64144939  0.26096537    -0.06600
C1289       C  0.25793882  0.64922737  0.24130084    -0.17900
C1290       C  0.25136826  0.67670062  0.23786665     0.10500
S1291       S  0.31696571  0.65414523  0.30296330    -0.32900
S1292       S  0.22559943  0.68355129  0.21184124    -0.32900
H1293       H  0.23496492  0.71051891  0.20598450     0.28500
H1294       H  0.32407733  0.62843408  0.29235952     0.28500
H1295       H  0.29468858  0.70527565  0.28696951     0.19100
H1296       H  0.24723639  0.63356609  0.22881144     0.19100
C1297       C  0.18581537  0.76170494  0.26056772    -0.06700
C1298       C  0.16772484  0.75988897  0.23753206    -0.17900
C1299       C  0.13925026  0.76368435  0.24014871     0.10500
C1300       C  0.12751239  0.76788964  0.26670755    -0.06600
C1301       C  0.14487038  0.76829444  0.29001351    -0.17900
C1302       C  0.17347144  0.76427615  0.28749786     0.10500
S1303       S  0.11928077  0.76380270  0.20843112    -0.32900
S1304       S  0.19190807  0.76130212  0.31992794    -0.32900
H1305       H  0.20899602  0.74022283  0.31123642     0.28500
H1306       H  0.10203075  0.78498733  0.21692526     0.28500
H1307       H  0.17534087  0.75508510  0.21700024     0.19100
H1308       H  0.13582422  0.77046883  0.31058442     0.19100
C1309       C  0.26814398  0.76569205  0.19345214    -0.06700
C1310       C  0.27925179  0.74264358  0.18050080    -0.17900
C1311       C  0.28335813  0.74173920  0.15147587     0.10500
C1312       C  0.27717662  0.76483531  0.13489564    -0.06600
C1313       C  0.26817280  0.78857237  0.14839186    -0.17900
C1314       C  0.26384225  0.78929992  0.17718259     0.10500
S1315       S  0.29397815  0.70964716  0.13689749    -0.32900
S1316       S  0.25261285  0.82103719  0.19202450    -0.32900
H1317       H  0.26600974  0.81700062  0.21742845     0.28500
H1318       H  0.27370681  0.70901216  0.11586934     0.28500
H1319       H  0.28264040  0.72438335  0.19270989     0.19100
H1320       H  0.26421157  0.80682628  0.13637444     0.19100
C1321       C  0.12091104  0.79412289  0.00824769    -0.06700
C1322       C  0.14112085  0.79184657  0.48419666    -0.17900
C1323       C  0.16643074  0.78367255  0.98798233     0.10500
C1324       C  0.17796152  0.78236864  0.01484561    -0.06600
C1325       C  0.16147025  0.78871872  0.03792274    -0.17900
C1326       C  0.13347097  0.79509181  0.03500792     0.10500
S1327       S  0.18986643  0.77843442  0.45714334    -0.32900
S1328       S  0.11445209  0.80466271  0.06594125    -0.32900
H1329       H  0.13737934  0.80766118  0.08388125     0.28500
H1330       H  0.16850009  0.77877463  0.43730330     0.28500
H1331       H  0.13367160  0.79268840  0.46324115     0.19100
H1332       H  0.17062810  0.78858152  0.05845845     0.19100
C1333       C  0.03850991  0.79606289  0.44451798    -0.06700
C1334       C  0.03587311  0.81868284  0.42678394    -0.17900
C1335       C  0.03136473  0.81511801  0.39799688     0.10500
C1336       C  0.02956526  0.78825053  0.38654473    -0.06600
C1337       C  0.03061196  0.76567619  0.40456627    -0.17900
C1338       C  0.03519213  0.76930982  0.43315202     0.10500
S1339       S  0.02803934  0.84500039  0.37613430    -0.32900
S1340       S  0.53805792  0.73925374  0.45710406    -0.32900
H1341       H  0.02346198  0.75006501  0.47619165     0.28500
H1342       H  0.03164773  0.86490638  0.39722517     0.28500
H1343       H  0.03911735  0.83916747  0.43521069     0.19100
H1344       H  0.02906253  0.74498874  0.39615542     0.19100
C1345       C  0.03440724  0.91693655  0.02396779    -0.06700
C1346       C  0.04137845  0.90039841  0.04668936    -0.17900
C1347       C  0.04557270  0.87216019  0.04341336     0.10500
C1348       C  0.04304574  0.85990417  0.01679210    -0.06600
C1349       C  0.03342160  0.87794190  0.49354883    -0.17900
C1350       C  0.02891656  0.90608807  0.49668851     0.10500
S1351       S  0.55682026  0.85656836  0.07352148    -0.32900
S1352       S  0.01841205  0.92423212  0.46604385    -0.32900
H1353       H  0.03834010  0.94594796  0.46929834     0.28500
H1354       H  0.04352715  0.82735490  0.06447868     0.28500
H1355       H  0.04368622  0.90954361  0.06717706     0.19100
H1356       H  0.03028069  0.86841642  0.47337567     0.19100
C1357       C  0.01586219  0.60867408  0.29300432    -0.06700
C1358       C  0.99180481  0.62308517  0.29874550    -0.17900
C1359       C  0.99109612  0.65161075  0.29484973     0.10500
C1360       C  0.01527226  0.66632622  0.28548054    -0.06600
C1361       C  0.03901434  0.65167479  0.27866847    -0.17900
C1362       C  0.03968964  0.62313034  0.28254572     0.10500
S1363       S  0.95910767  0.66875885  0.30169259    -0.32900
S1364       S  0.07221079  0.60707103  0.27552860    -0.32900
H1365       H  0.06273774  0.57960308  0.27773036     0.28500
H1366       H  0.94212778  0.64487946  0.30578834     0.28500
H1367       H  0.97387519  0.61205488  0.30756624     0.19100
H1368       H  0.05764627  0.66272142  0.27137692     0.19100
C1369       C  0.45043625  0.53838509  0.28706028    -0.06700
C1370       C  0.43871757  0.56256342  0.27738782    -0.17900
C1371       C  0.40985723  0.56405177  0.27323906     0.10500
C1372       C  0.39213591  0.54049343  0.27779724    -0.06600
C1373       C  0.40429665  0.51582915  0.28548098    -0.17900
C1374       C  0.43298303  0.51448423  0.28985080     0.10500
S1375       S  0.39684012  0.59724993  0.26492349    -0.32900
S1376       S  0.44619399  0.48161674  0.29909095    -0.32900
H1377       H  0.47227741  0.48681507  0.28651571     0.28500
H1378       H  0.37394661  0.59494454  0.28324014     0.28500
H1379       H  0.45177485  0.58103885  0.27509705     0.19100
H1380       H  0.39127113  0.49734792  0.28832628     0.19100
C1381       C  0.02322492  0.53491625  0.42910770    -0.06700
C1382       C  0.00550141  0.55441689  0.41877603    -0.17900
C1383       C  0.00191226  0.55771745  0.39012910     0.10500
C1384       C  0.01712582  0.54142220  0.37116524    -0.06600
C1385       C  0.03428791  0.52122571  0.38223736    -0.17900
C1386       C  0.03753416  0.51795600  0.41081118     0.10500
S1387       S  0.97725442  0.58244918  0.37852744    -0.32900
S1388       S  0.07550338  0.01173284  0.42092029    -0.32900
H1389       H  0.06409511  0.99686866  0.44361993     0.28500
H1390       H  0.97005151  0.59276321  0.40485619     0.28500
H1391       H  0.99415775  0.56681528  0.43336551     0.19100
H1392       H  0.04535242  0.50731173  0.36929210     0.19100
C1393       C  0.29498675  0.87174334  0.29208983    -0.06700
C1394       C  0.31805962  0.88986432  0.28643853    -0.17900
C1395       C  0.31517348  0.91779029  0.28097267     0.10500
C1396       C  0.28867516  0.92898059  0.28153324    -0.06600
C1397       C  0.26540634  0.91150908  0.28691392    -0.17900
C1398       C  0.26816949  0.88325492  0.29243834     0.10500
S1399       S  0.34643043  0.93810182  0.27293706    -0.32900
S1400       S  0.23712997  0.86262302  0.30082305    -0.32900
H1401       H  0.21770774  0.88227263  0.29376351     0.28500
H1402       H  0.33394292  0.95544135  0.25366189     0.28500
H1403       H  0.33900198  0.88312616  0.28621771     0.19100
H1404       H  0.24509740  0.92029329  0.28776291     0.19100
C1405       C  0.35861673  0.79100997  0.30236779    -0.06700
C1406       C  0.36571661  0.77193010  0.28182990    -0.17900
C1407       C  0.39340069  0.76460391  0.27809752     0.10500
C1408       C  0.41418620  0.77628163  0.29558435    -0.06600
C1409       C  0.40676722  0.79375653  0.31726127    -0.17900
C1410       C  0.37940663  0.80153877  0.32074648     0.10500
S1411       S  0.40110400  0.74146654  0.24997285    -0.32900
S1412       S  0.37347716  0.82650614  0.34787141    -0.32900
H1413       H  0.34452712  0.82369531  0.34931535     0.28500
H1414       H  0.42561082  0.73161750  0.26143286     0.28500
H1415       H  0.34993098  0.76398581  0.26759677     0.19100
H1416       H  0.42278532  0.80270742  0.33067116     0.19100
C1417       C  0.28911339  0.79329167  0.36181598    -0.06700
C1418       C  0.31206544  0.78083602  0.37377156    -0.17900
C1419       C  0.31263109  0.77435584  0.40223378     0.10500
C1420       C  0.28934634  0.77949799  0.41919909    -0.06600
C1421       C  0.26572485  0.79031413  0.40694265    -0.17900
C1422       C  0.26538559  0.79738369  0.37862664     0.10500
S1423       S  0.34392949  0.76028248  0.41574133    -0.32900
S1424       S  0.23409760  0.81168856  0.36537940    -0.32900
H1425       H  0.23789874  0.80324371  0.33769119     0.28500
H1426       H  0.33107081  0.74538175  0.43765103     0.28500
H1427       H  0.33025629  0.77717705  0.36112898     0.19100
H1428       H  0.24767725  0.79415549  0.41976659     0.19100
C1429       C  0.29570061  0.83954580  0.79899775     0.85900
C1430       C  0.32535951  0.82901802  0.79514593    -0.54400
C1431       C  0.32764626  0.80163791  0.79980500     0.08800
C1432       C  0.29993901  0.78631841  0.80679101     0.19800
C1433       C  0.27838479  0.82132965  0.77889610    -0.55100
C1434       C  0.28011034  0.79359935  0.78304527     0.08900
C1435       C  0.28676362  0.82944700  0.82822319    -0.54600
C1436       C  0.28893803  0.80171822  0.83240156     0.09500
H1437       H  0.34357643  0.84129532  0.78903375     0.14000
H1438       H  0.30174716  0.76387324  0.81013715    -0.00300
H1439       H  0.26445067  0.82973231  0.76376314     0.14300
H1440       H  0.28055992  0.84333872  0.84464223     0.14100
C1441       C  0.01101415  0.54554692  0.84004972     0.85900
C1442       C  0.47963704  0.53757592  0.83020129    -0.54400
C1443       C  0.47543285  0.54294990  0.80268250     0.08800
C1444       C  0.50189833  0.55468029  0.78769550     0.19800
C1445       C  0.02942622  0.52883996  0.82064333    -0.55100
C1446       C  0.02519174  0.53299009  0.79301903     0.08900
C1447       C  0.01633042  0.57539063  0.83088893    -0.54600
C1448       C  0.01161159  0.57996954  0.80340225     0.09500
H1449       H  0.46299895  0.52979759  0.84376744     0.14000
H1450       H  0.49880877  0.55897160  0.76527156    -0.00300
H1451       H  0.04275912  0.51272540  0.82722192     0.14300
H1452       H  0.02199547  0.59190324  0.84529222     0.14100
C1453       C  0.09261241  0.80273328  0.50304867     0.85900
C1454       C  0.08399378  0.83192209  0.51010933    -0.54400
C1455       C  0.05602994  0.83562218  0.50869485     0.08800
C1456       C  0.03601973  0.80674956  0.00142894     0.19800
C1457       C  0.07482802  0.78390796  0.52203698    -0.55100
C1458       C  0.04687785  0.78750696  0.52088092     0.08900
C1459       C  0.07706480  0.79348396  0.97546390    -0.54600
C1460       C  0.04931638  0.79766883  0.97360677     0.09500
H1461       H  0.09880393  0.84833627  0.51593014     0.14000
H1462       H  0.01343922  0.81029012  0.00002769    -0.00300
H1463       H  0.08370818  0.76810577  0.53482259     0.14300
H1464       H  0.08816114  0.78622088  0.95743872     0.14100
C1465       C  0.21279677  0.76036115  0.75445389     0.85900
C1466       C  0.22077643  0.73063174  0.75955319    -0.54400
C1467       C  0.24827053  0.72586099  0.75568208     0.08800
C1468       C  0.26606247  0.75197671  0.74792641     0.19800
C1469       C  0.23177816  0.77813121  0.77323228    -0.55100
C1470       C  0.25950691  0.77392282  0.77020411     0.08900
C1471       C  0.22429644  0.76684149  0.72491464    -0.54600
C1472       C  0.25200443  0.76258604  0.72152514     0.09500
H1473       H  0.20552486  0.71426991  0.76447357     0.14000
H1474       H  0.28856351  0.74844722  0.74508643    -0.00300
H1475       H  0.22393087  0.79403700  0.78672082     0.14300
H1476       H  0.21239387  0.77377580  0.70748083     0.14100
C1477       C  0.29786058  0.96579485  0.54818622     0.85900
C1478       C  0.28973475  0.97754449  0.57689198    -0.54400
C1479       C  0.29368444  0.50578398  0.58014159     0.08800
C1480       C  0.30603997  0.51950992  0.55386121     0.19800
C1481       C  0.28211125  0.98308748  0.52733073    -0.55100
C1482       C  0.28516690  0.51071530  0.53088595     0.08900
C1483       C  0.32839217  0.97516132  0.54503731    -0.54600
C1484       C  0.33250044  0.50351399  0.54736930     0.09500
H1485       H  0.28234497  0.96566138  0.59460668     0.14000
H1486       H  0.30983251  0.54206286  0.55589104    -0.00300
H1487       H  0.26851735  0.97400921  0.51154448     0.14300
H1488       H  0.34497738  0.96099523  0.54154521     0.14100
C1489       C  0.01258726  0.72068281  0.54878733     0.85900
C1490       C  0.48365496  0.72953523  0.53905760    -0.54400
C1491       C  0.47893298  0.75645398  0.54407328     0.08800
C1492       C  0.50403418  0.77282759  0.55672260     0.19800
C1493       C  0.03179433  0.73990586  0.53139241    -0.55100
C1494       C  0.02767970  0.76726433  0.53498624     0.08900
C1495       C  0.01703072  0.73064720  0.57871444    -0.54600
C1496       C  0.01286166  0.75787539  0.58302106     0.09500
H1497       H  0.46776729  0.71545627  0.53056080     0.14000
H1498       H  0.50045208  0.79493460  0.56049752    -0.00300
H1499       H  0.04744696  0.73335065  0.51691487     0.14300
H1500       H  0.02271200  0.71697703  0.59544270     0.14100
C1501       C  0.25233444  0.54704054  0.96699018     0.85900
C1502       C  0.26109856  0.57553467  0.97818000    -0.54400
C1503       C  0.26155937  0.57849451  0.50509135     0.08800
C1504       C  0.25115175  0.55232545  0.52084565     0.19800
C1505       C  0.26942652  0.52663167  0.98333064    -0.55100
C1506       C  0.27132251  0.52981742  0.51185446     0.08900
C1507       C  0.22255335  0.54198701  0.97855293    -0.54600
C1508       C  0.22350184  0.54363179  0.50641409     0.09500
H1509       H  0.26775379  0.59253488  0.96475199     0.14000
H1510       H  0.24920125  0.55503195  0.54372610    -0.00300
H1511       H  0.28164077  0.51104976  0.97335073     0.14300
H1512       H  0.20419700  0.53676611  0.96652058     0.14100
C1513       C  0.04365501  0.96590552  0.75613844     0.85900
C1514       C  0.07498281  0.97231002  0.75931030    -0.54400
C1515       C  0.08211373  0.49968391  0.75608370     0.08800
C1516       C  0.05775330  0.51850828  0.75001795     0.19800
C1517       C  0.02961840  0.98528685  0.77647914    -0.55100
C1518       C  0.03586815  0.51265194  0.77308615     0.08900
C1519       C  0.03664010  0.97798618  0.72745127    -0.54600
C1520       C  0.04411016  0.50567217  0.72417736     0.09500
H1521       H  0.08973720  0.95649207  0.76338038     0.14000
H1522       H  0.06428532  0.54042714  0.74738168    -0.00300
H1523       H  0.01514100  0.97801791  0.79249847     0.14300
H1524       H  0.02659293  0.96710527  0.71041970     0.14100
Zn1525     Zn  0.05130495  0.55280268  0.51230860     1.49700
Zn1526     Zn  0.00554153  0.54611748  0.55964359     1.49400
Zn1527     Zn  0.00409818  0.50316533  0.51088746     1.49100
Zn1528     Zn  0.05467326  0.50294704  0.55399779     1.49500
O1529       O  0.02901813  0.52605794  0.53412750    -1.84700
O1530       O  0.04204957  0.59152760  0.52157396    -0.75400
O1531       O  0.46500133  0.53750208  0.55692960    -0.75200
O1532       O  0.00602645  0.51138255  0.97152251    -0.74700
O1533       O  0.01023985  0.58650717  0.55463798    -0.75400
O1534       O  0.03961669  0.54431803  0.97224844    -0.75000
O1535       O  0.46292917  0.50628519  0.52331108    -0.75600
O1536       O  0.04898088  0.96197203  0.54368985    -0.74900
O1537       O  0.01658428  0.53940937  0.59841210    -0.75700
O1538       O  0.01415999  0.96229270  0.51351134    -0.75100
O1539       O  0.05055109  0.50972530  0.59523410    -0.75600
O1540       O  0.09517119  0.51270725  0.54487384    -0.75500
O1541       O  0.09275840  0.54967478  0.51815320    -0.75300
C1542       C  0.02555492  0.60184339  0.53907613     0.76500
C1543       C  0.45097963  0.52123668  0.54117442     0.77000
C1544       C  0.02203770  0.52899134  0.95926861     0.76000
C1545       C  0.03236388  0.94941707  0.52685887     0.76400
C1546       C  0.03502971  0.52513449  0.60950188     0.77500
C1547       C  0.10695377  0.53239451  0.53125673     0.76500
Zn1548     Zn  0.30457962  0.55924718  0.74898065     1.49700
Zn1549     Zn  0.26028644  0.00644526  0.74859392     1.49400
Zn1550     Zn  0.30160303  0.51647876  0.79889830     1.49100
Zn1551     Zn  0.25106801  0.55775980  0.78923385     1.49500
O1552       O  0.27910226  0.53509813  0.77138489    -1.84700
O1553       O  0.29975779  0.54878982  0.70857226    -0.75400
O1554       O  0.26921513  0.96722695  0.76064835    -0.75200
O1555       O  0.34280943  0.52603306  0.79459384    -0.74700
O1556       O  0.26960808  0.51279242  0.70871105    -0.75400
O1557       O  0.34575544  0.55553238  0.75946767    -0.75000
O1558       O  0.29813409  0.97519019  0.79586335    -0.75600
O1559       O  0.25349871  0.55335103  0.83062088    -0.74900
O1560       O  0.21704042  0.50981473  0.75206625    -0.75700
O1561       O  0.28921958  0.52640694  0.83742731    -0.75100
O1562       O  0.21129785  0.54636445  0.77846635    -0.75600
O1563       O  0.25724444  0.59814327  0.77976313    -0.75500
O1564       O  0.29475757  0.59962342  0.75240530    -0.75300
C1565       C  0.28552403  0.53013209  0.69574976     0.76500
C1566       C  0.28465976  0.95851398  0.77999358     0.77000
C1567       C  0.35736279  0.54146689  0.77824025     0.76000
C1568       C  0.26937544  0.54042670  0.84669174     0.76400
C1569       C  0.20102678  0.52641823  0.76417181     0.77500
C1570       C  0.27520155  0.61156200  0.76504392     0.76500
Zn1571     Zn  0.26207696  0.79222968  0.55110307     1.49700
Zn1572     Zn  0.31171160  0.79468765  0.50638616     1.49400
Zn1573     Zn  0.30539609  0.74512404  0.55130142     1.52700
Zn1574     Zn  0.25909703  0.74738219  0.00066523     1.49500
O1575       O  0.28541964  0.77027454  0.52725181    -1.84700
O1576       O  0.27336651  0.83156326  0.54846016    -0.75400
O1577       O  0.35127553  0.78623956  0.51602251    -0.75200
O1578       O  0.29648526  0.75061334  0.59238329    -0.74700
O1579       O  0.30690611  0.83478372  0.51685820    -0.75400
O1580       O  0.26441904  0.78198618  0.59135169    -0.75000
O1581       O  0.34671869  0.75238940  0.54704837    -0.75600
O1582       O  0.26295639  0.70869911  0.50888587    -0.74900
O1583       O  0.30255703  0.78721035  0.96179202    -0.75700
O1584       O  0.29492595  0.70529927  0.54197289    -0.75100
O1585       O  0.26917415  0.75421714  0.95999727    -0.75600
O1586       O  0.22174258  0.76116743  0.50432608    -0.75500
O1587       O  0.22247574  0.79089518  0.53930036    -0.75300
C1588       C  0.29089537  0.84595381  0.53444210     0.76500
C1589       C  0.36180807  0.76949199  0.53297793     0.77000
C1590       C  0.27932733  0.76568839  0.60489143     0.76000
C1591       C  0.27706277  0.69425603  0.52543631     0.76400
C1592       C  0.28608657  0.77124692  0.94797717     0.77500
C1593       C  0.20960966  0.77831705  0.51977603     0.76500
Zn1594     Zn  0.04403068  0.79682925  0.80016929     1.49700
Zn1595     Zn  0.99262067  0.79384499  0.75717361     1.49400
Zn1596     Zn  0.03689337  0.74781498  0.75526642     1.49100
Zn1597     Zn  0.99603199  0.75119280  0.80844685     1.49500
O1598       O  0.01736490  0.77241641  0.78031518    -1.84700
O1599       O  0.03965142  0.83597798  0.78836485    -0.75400
O1600       O  0.99763705  0.78709590  0.71575104    -0.75200
O1601       O  0.07798305  0.75424413  0.75934424    -0.74700
O1602       O  0.00168953  0.83433254  0.76216212    -0.75400
O1603       O  0.08368291  0.78711157  0.79138662    -0.75000
O1604       O  0.02891411  0.75498696  0.71443721    -0.75600
O1605       O  0.00078516  0.71054043  0.80237127    -0.74900
O1606       O  0.45276790  0.78679570  0.76769041    -0.75700
O1607       O  0.02720747  0.70796290  0.76435847    -0.75100
O1608       O  0.45505031  0.75934071  0.80459800    -0.75600
O1609       O  0.00639254  0.76215053  0.84846855    -0.75500
O1610       O  0.03804951  0.79591755  0.84186166    -0.75300
C1611       C  0.02173888  0.84782457  0.77368461     0.76500
C1612       C  0.01304424  0.77127009  0.70195797     0.77000
C1613       C  0.09355370  0.77026531  0.77394619     0.76000
C1614       C  0.01289384  0.69645108  0.78382342     0.76400
C1615       C  0.44110459  0.77298249  0.78732808     0.77500
C1616       C  0.02270623  0.78116084  0.85807321     0.76500
C1617       C  0.11205062  0.50881970  0.75560752    -0.06700
C1618       C  0.12149395  0.52915712  0.77436599    -0.17900
C1619       C  0.15004984  0.53555349  0.77775511     0.10500
C1620       C  0.17005823  0.52187510  0.76138381    -0.06600
C1621       C  0.16015683  0.50249455  0.74162878    -0.17900
C1622       C  0.13175690  0.49592523  0.73848148     0.10500
S1623       S  0.15919510  0.56010420  0.80454054    -0.32900
S1624       S  0.12357420  0.96956059  0.71229646    -0.32900
H1625       H  0.09699416  0.97887898  0.70663363     0.28500
H1626       H  0.17686261  0.54202293  0.81782942     0.28500
H1627       H  0.10656636  0.53911635  0.78758959     0.19100
H1628       H  0.17470322  0.49207617  0.72838222     0.19100
C1629       C  0.03607370  0.93522766  0.76127567    -0.06700
C1630       C  0.02602855  0.91805353  0.73946443    -0.17900
C1631       C  0.02061862  0.88980549  0.74309791     0.10500
C1632       C  0.02498538  0.87786597  0.76932023    -0.06600
C1633       C  0.03477168  0.89454495  0.79125959    -0.17900
C1634       C  0.04044469  0.92284935  0.78766475     0.10500
S1635       S  0.01057668  0.86891353  0.71324018    -0.32900
S1636       S  0.05441369  0.94231744  0.81695156    -0.32900
H1637       H  0.04984835  0.92190897  0.83735691     0.28500
H1638       H  0.00907309  0.89024572  0.69365814     0.28500
H1639       H  0.02333678  0.92585746  0.71888083     0.19100
H1640       H  0.03848098  0.88514611  0.81124537     0.19100
C1641       C  0.04122981  0.51965879  0.69745077    -0.06700
C1642       C  0.06545479  0.52493674  0.68176835    -0.17900
C1643       C  0.06408591  0.52822510  0.65295417     0.10500
C1644       C  0.03790982  0.52630185  0.63980802    -0.06600
C1645       C  0.01360243  0.52441955  0.65601698    -0.17900
C1646       C  0.01498856  0.52106327  0.68475046     0.10500
S1647       S  0.09632458  0.53406956  0.63414825    -0.32900
S1648       S  0.48464837  0.01395181  0.70317260    -0.32900
H1649       H  0.99352192  0.02160870  0.72974465     0.28500
H1650       H  0.08506027  0.55031801  0.61314335     0.28500
H1651       H  0.08560431  0.52459588  0.69168359     0.19100
H1652       H  0.99340848  0.52392160  0.64608962     0.19100
C1653       C  0.26596032  0.60634329  0.51719758    -0.06700
C1654       C  0.24280169  0.62284213  0.51911503    -0.17900
C1655       C  0.24575582  0.65122490  0.52358432     0.10500
C1656       C  0.27263075  0.66390337  0.52527390    -0.06600
C1657       C  0.29582219  0.64723878  0.52489793    -0.17900
C1658       C  0.29284207  0.61870084  0.52064480     0.10500
S1659       S  0.21436796  0.67010726  0.52662217    -0.32900
S1660       S  0.32250992  0.59967669  0.00982001    -0.32900
H1661       H  0.31165758  0.57355327  0.01745215     0.28500
H1662       H  0.22528637  0.68957408  0.54575349     0.28500
H1663       H  0.22225575  0.61386924  0.51550682     0.19100
H1664       H  0.31653215  0.65669434  0.52640690     0.19100
C1665       C  0.25672508  0.54509687  0.93536659    -0.06700
C1666       C  0.23404414  0.54047869  0.91720874    -0.17900
C1667       C  0.23767345  0.53835543  0.88850035     0.10500
C1668       C  0.26452475  0.54147507  0.87690579    -0.06600
C1669       C  0.28728048  0.54619375  0.89447080    -0.17900
C1670       C  0.28378673  0.54841452  0.92336294     0.10500
S1671       S  0.21008983  0.02480588  0.86743403    -0.32900
S1672       S  0.31422747  0.55668682  0.94415050    -0.32900
H1673       H  0.33430897  0.55243073  0.92336233     0.28500
H1674       H  0.22517215  0.00949667  0.84807610     0.28500
H1675       H  0.21298956  0.53836268  0.92461438     0.19100
H1676       H  0.30782211  0.54897077  0.88533862     0.19100
C1677       C  0.13776832  0.53478960  0.52994559    -0.06700
C1678       C  0.15251184  0.51144687  0.52296624    -0.17900
C1679       C  0.18124311  0.51331559  0.51809037     0.10500
C1680       C  0.19587134  0.53901321  0.52016358    -0.06600
C1681       C  0.17622974  0.56462222  0.02080747    -0.17900
C1682       C  0.14764899  0.56241377  0.02666729     0.10500
S1683       S  0.19818482  0.48241204  0.50831096    -0.32900
S1684       S  0.12820670  0.59345017  0.02842442    -0.32900
H1685       H  0.15111688  0.61226456  0.02663170     0.28500
H1686       H  0.22293700  0.49016921  0.52202636     0.28500
H1687       H  0.14141433  0.49182423  0.52016316     0.19100
H1688       H  0.18553512  0.58434050  0.01498468     0.19100
C1689       C  0.01324550  0.77206912  0.67086742    -0.06700
C1690       C  0.03813752  0.76658891  0.65679463    -0.17900
C1691       C  0.03946519  0.76550428  0.62765705     0.10500
C1692       C  0.01532099  0.76940239  0.61175114    -0.06600
C1693       C  0.49037382  0.77659727  0.62603740    -0.17900
C1694       C  0.48918295  0.77803547  0.65527027     0.10500
S1695       S  0.07246245  0.75838895  0.61176459    -0.32900
S1696       S  0.45612026  0.78556804  0.67070332    -0.32900
H1697       H  0.45677953  0.76436065  0.69055210     0.28500
H1698       H  0.06683047  0.77104677  0.58622179     0.28500
H1699       H  0.05674397  0.76283960  0.66858490     0.19100
H1700       H  0.47188777  0.78039567  0.61426682     0.19100
C1701       C  0.45049874  0.76628432  0.54120240    -0.06700
C1702       C  0.43339118  0.76460352  0.56484897    -0.17900
C1703       C  0.40464064  0.76685865  0.56296309     0.10500
C1704       C  0.39230671  0.77004594  0.53656877    -0.06600
C1705       C  0.40950575  0.77266664  0.51292706    -0.17900
C1706       C  0.43838331  0.77055798  0.51490329     0.10500
S1707       S  0.38498622  0.76515737  0.59505151    -0.32900
S1708       S  0.45816653  0.77132687  0.48288016    -0.32900
H1709       H  0.48411772  0.77708980  0.49497498     0.28500
H1710       H  0.36558368  0.78445911  0.58696932     0.28500
H1711       H  0.44224597  0.75982022  0.58479422     0.19100
H1712       H  0.40027906  0.77510495  0.49258936     0.19100
C1713       C  0.02361454  0.63210761  0.54157428    -0.06700
C1714       C  0.50009392  0.64212529  0.55482909    -0.17900
C1715       C  0.49672114  0.67036739  0.55809900     0.10500
C1716       C  0.01630587  0.68964373  0.54626165    -0.06600
C1717       C  0.03902804  0.67916102  0.53151016    -0.17900
C1718       C  0.04313451  0.65102785  0.52946447     0.10500
S1719       S  0.46853436  0.68136175  0.58021420    -0.32900
S1720       S  0.07470760  0.64116911  0.51238605    -0.32900
H1721       H  0.08231634  0.62384992  0.53426259     0.28500
H1722       H  0.45636287  0.65523487  0.58601763     0.28500
H1723       H  0.48551204  0.62786240  0.56497551     0.19100
H1724       H  0.05493960  0.69241446  0.52236231     0.19100
C1725       C  0.28698612  0.52856094  0.66497780    -0.06700
C1726       C  0.26387076  0.01950467  0.64984826    -0.17900
C1727       C  0.26454253  0.01517201  0.62110132     0.10500
C1728       C  0.28876416  0.51983955  0.60695497    -0.06600
C1729       C  0.31167141  0.53199898  0.62069919    -0.17900
C1730       C  0.31143275  0.53564217  0.64959733     0.10500
S1731       S  0.23266188  0.00395390  0.60417076    -0.32900
S1732       S  0.34390625  0.54633840  0.66558131    -0.32900
H1733       H  0.34206382  0.52627613  0.68665721     0.28500
H1734       H  0.24041754  0.01335485  0.57744537     0.28500
H1735       H  0.24450977  0.01552146  0.66103101     0.19100
H1736       H  0.33068396  0.53642038  0.60932652     0.19100
C1737       C  0.29379721  0.93463590  0.54350001    -0.06700
C1738       C  0.28116299  0.91764541  0.56404463    -0.17900
C1739       C  0.28091633  0.88904654  0.56223430     0.10500
C1740       C  0.29209961  0.87626520  0.53837882    -0.06600
C1741       C  0.30324922  0.89298542  0.51698728    -0.17900
C1742       C  0.30405404  0.92179095  0.51906126     0.10500
S1743       S  0.26697628  0.87050383  0.59206224    -0.32900
S1744       S  0.31214284  0.94184050  0.98734849    -0.32900
H1745       H  0.33004236  0.91974081  0.47564734     0.28500
H1746       H  0.28948612  0.85298067  0.59376451     0.28500
H1747       H  0.27150519  0.92603371  0.58222370     0.19100
H1748       H  0.31097356  0.88342606  0.49826556     0.19100
C1749       C  0.42018877  0.51993309  0.54315640    -0.06700
C1750       C  0.40477905  0.51640684  0.51855933    -0.17900
C1751       C  0.37569641  0.51408244  0.51911757     0.10500
C1752       C  0.36134252  0.51505340  0.54480225    -0.06600
C1753       C  0.37807484  0.01566529  0.56970562    -0.17900
C1754       C  0.40716258  0.01784869  0.56883215     0.10500
S1755       S  0.35806735  0.50797692  0.48656952    -0.32900
S1756       S  0.42519541  0.01706756  0.60163019    -0.32900
H1757       H  0.44622625  0.99999840  0.59218465     0.28500
H1758       H  0.33333300  0.51999846  0.49493228     0.28500
H1759       H  0.41548564  0.51513918  0.49871171     0.19100
H1760       H  0.36785840  0.01288767  0.58965346     0.19100
C1761       C  0.25829551  0.69726504  0.75520081    -0.06700
C1762       C  0.27813294  0.68955648  0.77474714    -0.17900
C1763       C  0.28501584  0.66186465  0.77788554     0.10500
C1764       C  0.27184371  0.64138504  0.76104918    -0.06600
C1765       C  0.25284443  0.64923951  0.74090337    -0.17900
C1766       C  0.24605819  0.67672591  0.73760888     0.10500
S1767       S  0.30928490  0.65386766  0.80487757    -0.32900
S1768       S  0.22098879  0.68368112  0.71093417    -0.32900
H1769       H  0.23023715  0.71078654  0.70558072     0.28500
H1770       H  0.31857825  0.62949851  0.79292138     0.28500
H1771       H  0.28745460  0.70502593  0.78843894     0.19100
H1772       H  0.24272556  0.63363837  0.72789403     0.19100
C1773       C  0.18163019  0.76432366  0.75999676    -0.06700
C1774       C  0.16356806  0.77113080  0.73819070    -0.17900
C1775       C  0.13517310  0.77405930  0.74258784     0.10500
C1776       C  0.12376550  0.76992620  0.76934067    -0.06600
C1777       C  0.14121598  0.76359670  0.79139693    -0.17900
C1778       C  0.16983425  0.76036791  0.78708975     0.10500
S1779       S  0.11449568  0.78319834  0.71294895    -0.32900
S1780       S  0.19053816  0.75007555  0.81638839    -0.32900
H1781       H  0.16979411  0.75176729  0.83699208     0.28500
H1782       H  0.09570705  0.79905931  0.72795936     0.28500
H1783       H  0.17073015  0.77395158  0.71715432     0.19100
H1784       H  0.13211966  0.76013754  0.81182125     0.19100
C1785       C  0.26545716  0.76558349  0.69372226    -0.06700
C1786       C  0.27603694  0.74221231  0.68097953    -0.17900
C1787       C  0.28103938  0.74145336  0.65215864     0.10500
C1788       C  0.27652212  0.76505191  0.63574875    -0.06600
C1789       C  0.26820192  0.78910158  0.64915072    -0.17900
C1790       C  0.26277335  0.78964107  0.67771821     0.10500
S1791       S  0.29031434  0.70896374  0.63748367    -0.32900
S1792       S  0.25205459  0.82159611  0.69253180    -0.32900
H1793       H  0.26373451  0.81657645  0.71858675     0.28500
H1794       H  0.27081700  0.70972481  0.61579056     0.28500
H1795       H  0.27816980  0.72365215  0.69308924     0.19100
H1796       H  0.26547858  0.80767154  0.63719865     0.19100
C1797       C  0.12387657  0.79839961  0.50696741    -0.06700
C1798       C  0.13826727  0.78935657  0.98503054    -0.17900
C1799       C  0.16885539  0.78492623  0.48770473     0.10500
C1800       C  0.18021643  0.78464496  0.51470485    -0.06600
C1801       C  0.16389636  0.79284417  0.53727484    -0.17900
C1802       C  0.13621929  0.80005483  0.53380316     0.10500
S1803       S  0.18778138  0.78007493  0.95709444    -0.32900
S1804       S  0.11723176  0.81134882  0.56412627    -0.32900
H1805       H  0.13897690  0.81026871  0.58347757     0.28500
H1806       H  0.16735931  0.78555162  0.93724429     0.28500
H1807       H  0.13055247  0.79086746  0.96420567     0.19100
H1808       H  0.17294398  0.79350188  0.55785872     0.19100
C1809       C  0.03496036  0.79339315  0.94641299    -0.06700
C1810       C  0.03259973  0.81612369  0.92882807    -0.17900
C1811       C  0.02725468  0.81278272  0.90020251     0.10500
C1812       C  0.02445978  0.78598959  0.88867707    -0.06600
C1813       C  0.02502262  0.76330470  0.90662295    -0.17900
C1814       C  0.03034677  0.76673664  0.93512409     0.10500
S1815       S  0.02429609  0.84292450  0.87863158    -0.32900
S1816       S  0.53595847  0.73748428  0.95582446    -0.32900
H1817       H  0.01821502  0.74781330  0.97805838     0.28500
H1818       H  0.02638574  0.86252398  0.90017241     0.28500
H1819       H  0.03674773  0.83649358  0.93717013     0.19100
H1820       H  0.02261711  0.74267506  0.89819305     0.19100
C1821       C  0.03473578  0.91929020  0.52252991    -0.06700
C1822       C  0.04403378  0.90335401  0.54473173    -0.17900
C1823       C  0.04860327  0.87529630  0.54146110     0.10500
C1824       C  0.04439679  0.86265626  0.51525168    -0.06600
C1825       C  0.03508021  0.87605799  0.99434410    -0.17900
C1826       C  0.03123373  0.90432551  0.99744415     0.10500
S1827       S  0.56329743  0.85953047  0.57241855    -0.32900
S1828       S  0.02520816  0.92345355  0.96609070    -0.32900
H1829       H  0.04428081  0.94508051  0.97282296     0.28500
H1830       H  0.04880218  0.83092405  0.56313575     0.28500
H1831       H  0.04797962  0.91286180  0.56482192     0.19100
H1832       H  0.03380353  0.86703869  0.97378308     0.19100
C1833       C  0.01076259  0.60843326  0.79284415    -0.06700
C1834       C  0.98687961  0.62304527  0.79863527    -0.17900
C1835       C  0.98649882  0.65157395  0.79466087     0.10500
C1836       C  0.01089452  0.66600068  0.78533104    -0.06600
C1837       C  0.03441590  0.65111183  0.77842046    -0.17900
C1838       C  0.03458078  0.62257422  0.78209879     0.10500
S1839       S  0.95465958  0.66909496  0.80124818    -0.32900
S1840       S  0.06632006  0.60559815  0.77458436    -0.32900
H1841       H  0.05283029  0.58084956  0.76660297     0.28500
H1842       H  0.93821978  0.64577634  0.80900924     0.28500
H1843       H  0.96886116  0.61215825  0.80744478     0.19100
H1844       H  0.05318634  0.66189841  0.77110305     0.19100
C1845       C  0.44673535  0.54099040  0.79075734    -0.06700
C1846       C  0.43467222  0.56494512  0.78097023    -0.17900
C1847       C  0.40578084  0.56592824  0.77657276     0.10500
C1848       C  0.38834901  0.54213612  0.78117954    -0.06600
C1849       C  0.40083721  0.51783840  0.78946535    -0.17900
C1850       C  0.42952545  0.51697924  0.79399701     0.10500
S1851       S  0.39233213  0.59878693  0.76767632    -0.32900
S1852       S  0.44315882  0.48448322  0.80375846    -0.32900
H1853       H  0.46791828  0.48912359  0.78865139     0.28500
H1854       H  0.36941412  0.59639079  0.78595766     0.28500
H1855       H  0.44749393  0.58358585  0.77860453     0.19100
H1856       H  0.38810151  0.49919281  0.79247296     0.19100
C1857       C  0.01969031  0.53232785  0.92923761    -0.06700
C1858       C  0.99898017  0.54898616  0.91930852    -0.17900
C1859       C  0.99643196  0.55432815  0.89082719     0.10500
C1860       C  0.01462542  0.54183749  0.87150156    -0.06600
C1861       C  0.03624848  0.52613239  0.88220776    -0.17900
C1862       C  0.03873898  0.52107231  0.91063265     0.10500
S1863       S  0.97027494  0.57780970  0.87993287    -0.32900
S1864       S  0.06526098  0.99888551  0.92201865    -0.32900
H1865       H  0.05330821  0.99035481  0.94744532     0.28500
H1866       H  0.95883364  0.58289863  0.90636323     0.28500
H1867       H  0.98510039  0.55824781  0.93412653     0.19100
H1868       H  0.05196872  0.51783062  0.86900761     0.19100
C1869       C  0.29232823  0.87091852  0.79488516    -0.06700
C1870       C  0.31592221  0.88914521  0.79317170    -0.17900
C1871       C  0.31388422  0.91718335  0.78750604     0.10500
C1872       C  0.28758283  0.92845444  0.78415322    -0.06600
C1873       C  0.26378752  0.91104325  0.78712811    -0.17900
C1874       C  0.26575338  0.88275908  0.79318597     0.10500
S1875       S  0.34602717  0.93742215  0.78433439    -0.32900
S1876       S  0.23403894  0.86263029  0.80014194    -0.32900
H1877       H  0.21527366  0.88307033  0.79363615     0.28500
H1878       H  0.33684998  0.95440146  0.76285650     0.28500
H1879       H  0.33655506  0.88228062  0.79672967     0.19100
H1880       H  0.24357462  0.91992604  0.78571105     0.19100
C1881       C  0.35518961  0.78924096  0.79942394    -0.06700
C1882       C  0.36324620  0.77518597  0.77531260    -0.17900
C1883       C  0.39099598  0.76821832  0.77110583     0.10500
C1884       C  0.41093984  0.77487937  0.79176096    -0.06600
C1885       C  0.40245253  0.78712083  0.81658168    -0.17900
C1886       C  0.37516771  0.79510177  0.82043319     0.10500
S1887       S  0.39979890  0.75166292  0.73879168    -0.32900
S1888       S  0.36874391  0.81437932  0.85191932    -0.32900
H1889       H  0.34105404  0.82062070  0.84778530     0.28500
H1890       H  0.42319818  0.73851639  0.74889501     0.28500
H1891       H  0.34816056  0.77095876  0.75902208     0.19100
H1892       H  0.41779118  0.79241626  0.83236696     0.19100
C1893       C  0.28536691  0.78889675  0.86042070    -0.06700
C1894       C  0.30785262  0.77529230  0.87184451    -0.17900
C1895       C  0.30835175  0.76823392  0.90014084     0.10500
C1896       C  0.28538206  0.77390540  0.91732840    -0.06600
C1897       C  0.26182561  0.78507841  0.90532953    -0.17900
C1898       C  0.26156544  0.79264100  0.87717578     0.10500
S1899       S  0.33925198  0.75303125  0.91321881    -0.32900
S1900       S  0.23034457  0.80710330  0.86397808    -0.32900
H1901       H  0.23430517  0.79871581  0.83629122     0.28500
H1902       H  0.32622622  0.73892402  0.93555314     0.28500
H1903       H  0.32581068  0.77135415  0.85899828     0.19100
H1904       H  0.24390582  0.78905057  0.91828182     0.19100
C1905       C  0.79977074  0.34097673  0.29697750     0.85900
C1906       C  0.82922734  0.32963221  0.29487603    -0.54400
C1907       C  0.83057876  0.30243888  0.30101306     0.08800
C1908       C  0.80235168  0.28818976  0.30807160     0.19800
C1909       C  0.78243025  0.32206092  0.27760119    -0.55100
C1910       C  0.78345808  0.29458396  0.28323009     0.08900
C1911       C  0.79015781  0.33286834  0.32662269    -0.54600
C1912       C  0.79130465  0.30534678  0.33260931     0.09500
H1913       H  0.84808762  0.34116454  0.28942913     0.14000
H1914       H  0.80347508  0.26589116  0.31263672    -0.00300
H1915       H  0.76898766  0.32999960  0.26175389     0.14300
H1916       H  0.78458856  0.34803209  0.34207686     0.14100
C1917       C  0.51114717  0.04542996  0.33841720     0.85900
C1918       C  0.98271695  0.03533505  0.32842858    -0.54400
C1919       C  0.97864340  0.04062149  0.30081590     0.08800
C1920       C  0.00464250  0.05382168  0.28631958     0.19800
C1921       C  0.53054873  0.02929550  0.31955232    -0.55100
C1922       C  0.52707973  0.03336471  0.29181114     0.08900
C1923       C  0.51583083  0.07542260  0.32960322    -0.54600
C1924       C  0.51199166  0.08006780  0.30200224     0.09500
H1925       H  0.96639917  0.02632123  0.34160365     0.14000
H1926       H  0.00179813  0.05788963  0.26381707    -0.00300
H1927       H  0.54371775  0.01321899  0.32662565     0.14300
H1928       H  0.52077047  0.09192281  0.34425910     0.14100
C1929       C  0.58977436  0.30003974  0.00298333     0.85900
C1930       C  0.58235734  0.32967945  0.00972433    -0.54400
C1931       C  0.55456012  0.33434137  0.00879023     0.08800
C1932       C  0.53881928  0.31039110  0.49978488     0.19800
C1933       C  0.57170067  0.28216119  0.02256252    -0.55100
C1934       C  0.54386573  0.28651380  0.02163457     0.08900
C1935       C  0.58046650  0.29800530  0.47421332    -0.54600
C1936       C  0.55261694  0.30159652  0.47200072     0.09500
H1937       H  0.59782583  0.34566577  0.01505348     0.14000
H1938       H  0.51615451  0.31342083  0.49822430    -0.00300
H1939       H  0.58025823  0.26606537  0.03520622     0.14300
H1940       H  0.59197408  0.29103177  0.45633112     0.14100
C1941       C  0.71647223  0.26002933  0.25509884     0.85900
C1942       C  0.72511801  0.23068108  0.26095587    -0.54400
C1943       C  0.75264397  0.22619679  0.25658255     0.08800
C1944       C  0.76989015  0.25246770  0.24813908     0.19800
C1945       C  0.73530788  0.27855591  0.27334423    -0.55100
C1946       C  0.76311566  0.27463748  0.27029219     0.08900
C1947       C  0.72763010  0.26625092  0.22542272    -0.54600
C1948       C  0.75529552  0.26231134  0.22162936     0.09500
H1949       H  0.71018086  0.21425692  0.26654685     0.14000
H1950       H  0.79243119  0.24928861  0.24509568    -0.00300
H1951       H  0.72737125  0.29458937  0.28662789     0.14300
H1952       H  0.71547960  0.27344215  0.20827216     0.14100
C1953       C  0.79366585  0.46406686  0.04784308     0.85900
C1954       C  0.78707132  0.47616268  0.07686836    -0.54400
C1955       C  0.79166434  0.00216766  0.08047855     0.08800
C1956       C  0.80418209  0.01560848  0.05413045     0.19800
C1957       C  0.77652400  0.48109672  0.02795825    -0.55100
C1958       C  0.78269930  0.00792261  0.03137413     0.08900
C1959       C  0.82392918  0.47342826  0.04273508    -0.54600
C1960       C  0.82976722  0.99855321  0.04726658     0.09500
H1961       H  0.77984241  0.46453925  0.09480333     0.14000
H1962       H  0.80900311  0.03802050  0.05620642    -0.00300
H1963       H  0.76192804  0.47188004  0.01316216     0.14300
H1964       H  0.84028875  0.45915158  0.03862923     0.14100
C1965       C  0.50885255  0.21917384  0.04743149     0.85900
C1966       C  0.97800488  0.22779092  0.03854410    -0.54400
C1967       C  0.97423053  0.25505358  0.04317064     0.08800
C1968       C  0.00005322  0.27092891  0.05493469     0.19800
C1969       C  0.52849104  0.23871394  0.03087637    -0.55100
C1970       C  0.52421103  0.26601782  0.03472758     0.08900
C1971       C  0.51275197  0.22882872  0.07759729    -0.54600
C1972       C  0.50826879  0.25597387  0.08211730     0.09500
H1973       H  0.96162685  0.21402875  0.03047018     0.14000
H1974       H  0.99717601  0.29318229  0.05859691    -0.00300
H1975       H  0.54496329  0.23251186  0.01720800     0.14300
H1976       H  0.51855272  0.21512453  0.09424707     0.14100
C1977       C  0.75688165  0.04718636  0.46683570     0.85900
C1978       C  0.76461366  0.07636484  0.47691826    -0.54400
C1979       C  0.76217276  0.07670151  0.00599165     0.08800
C1980       C  0.75045593  0.05066281  0.02106168     0.19800
C1981       C  0.77444029  0.02807731  0.48411064    -0.55100
C1982       C  0.77007344  0.02768949  0.01225637     0.08900
C1983       C  0.72707826  0.04173333  0.47825526    -0.54600
C1984       C  0.72301057  0.04335177  0.00573176     0.09500
H1985       H  0.77083215  0.09301954  0.46288011     0.14000
H1986       H  0.74794594  0.05313427  0.04391847    -0.00300
H1987       H  0.78702975  0.01239740  0.47481150     0.14300
H1988       H  0.70887655  0.03625856  0.46609092     0.14100
C1989       C  0.54938177  0.46680179  0.25597281     0.85900
C1990       C  0.58040336  0.47414242  0.25978913    -0.54400
C1991       C  0.58556869  0.00076385  0.25641418     0.08800
C1992       C  0.56078874  0.01891965  0.24958163     0.19800
C1993       C  0.53430857  0.48532766  0.27646212    -0.55100
C1994       C  0.53863823  0.01292989  0.27239401     0.08900
C1995       C  0.54231131  0.47916005  0.22746755    -0.54600
C1996       C  0.54781349  0.00530468  0.22374077     0.09500
H1997       H  0.59563375  0.45872130  0.26366365     0.14000
H1998       H  0.56672510  0.04098987  0.24671384    -0.00300
H1999       H  0.51956730  0.47730425  0.29188773     0.14300
H2000       H  0.53229622  0.46843368  0.21031425     0.14100
Zn2001     Zn  0.54821452  0.05133288  0.01008551     1.49700
Zn2002     Zn  0.50441397  0.04456481  0.05977656     1.49400
Zn2003     Zn  0.50192974  0.00154921  0.01072222     1.49100
Zn2004     Zn  0.55443489  0.00263435  0.05266673     1.49500
O2005       O  0.52728714  0.02476544  0.03327240    -1.84700
O2006       O  0.53832759  0.08994304  0.01929924    -0.75400
O2007       O  0.96196375  0.03144075  0.05739065    -0.75200
O2008       O  0.50688676  0.01382824  0.47075608    -0.74700
O2009       O  0.50858741  0.08499981  0.05427144    -0.75400
O2010       O  0.54145545  0.04574115  0.46986339    -0.75000
O2011       O  0.96112124  0.00180872  0.02222218    -0.75600
O2012       O  0.54657554  0.46133518  0.04445530    -0.74900
O2013       O  0.51688777  0.03809076  0.09833003    -0.75700
O2014       O  0.51061886  0.46047677  0.01549682    -0.75100
O2015       O  0.55108291  0.00884908  0.09401199    -0.75600
O2016       O  0.59464407  0.01420187  0.04329025    -0.75500
O2017       O  0.58977062  0.04920048  0.01470266    -0.75300
C2018       C  0.52267282  0.10029984  0.03757519     0.76500
C2019       C  0.94861859  0.01530268  0.04097231     0.77000
C2020       C  0.52304880  0.03066703  0.45770028     0.76000
C2021       C  0.52988880  0.44827555  0.02805460     0.76400
C2022       C  0.53582338  0.02398703  0.10883694     0.77500
C2023       C  0.60528704  0.03367850  0.02849345     0.76500
Zn2024     Zn  0.80814424  0.05933545  0.24835785     1.49700
Zn2025     Zn  0.76415125  0.50844630  0.24787917     1.49400
Zn2026     Zn  0.80583981  0.01658003  0.29830138     1.49100
Zn2027     Zn  0.75536453  0.05824422  0.29004334     1.49500
O2028       O  0.78289517  0.03553685  0.27144082    -1.84700
O2029       O  0.80195624  0.04938581  0.20787667    -0.75400
O2030       O  0.77276070  0.46889517  0.25811077    -0.75200
O2031       O  0.84672809  0.02567873  0.29319396    -0.74700
O2032       O  0.77148197  0.01372806  0.20918405    -0.75400
O2033       O  0.84945702  0.05441433  0.25743703    -0.75000
O2034       O  0.80347296  0.47514774  0.29210559    -0.75600
O2035       O  0.75872564  0.05325231  0.33136226    -0.74900
O2036       O  0.72033608  0.01060487  0.25381466    -0.75700
O2037       O  0.79450395  0.02609094  0.33719980    -0.75100
O2038       O  0.71501250  0.04741320  0.27998058    -0.75600
O2039       O  0.76211364  0.09860202  0.28053781    -0.75500
O2040       O  0.79933138  0.09991453  0.25271228    -0.75300
C2041       C  0.78711395  0.03080620  0.19560557     0.76500
C2042       C  0.78907681  0.45931277  0.27618343     0.77000
C2043       C  0.86117240  0.04038101  0.27616020     0.76000
C2044       C  0.77488916  0.04008934  0.34694954     0.76400
C2045       C  0.70450512  0.02737639  0.26592615     0.77500
C2046       C  0.78007467  0.11196239  0.26572859     0.76500
Zn2047     Zn  0.75917945  0.29001599  0.04993392     1.49700
Zn2048     Zn  0.80716682  0.29333703  0.00359548     1.49400
Zn2049     Zn  0.80373326  0.24439431  0.04962648     1.52700
Zn2050     Zn  0.76121361  0.25110297  0.50135063     1.49500
O2051       O  0.78243244  0.26839172  0.02566747    -1.84700
O2052       O  0.76999068  0.32970095  0.04739334    -0.75400
O2053       O  0.84730326  0.28657267  0.01229786    -0.75200
O2054       O  0.79553205  0.24970731  0.09089125    -0.74700
O2055       O  0.80149134  0.33344077  0.01370275    -0.75400
O2056       O  0.76218809  0.27973689  0.09038006    -0.75000
O2057       O  0.84442817  0.25371246  0.04458501    -0.75600
O2058       O  0.76099675  0.20563023  0.00955730    -0.74900
O2059       O  0.80513625  0.29199203  0.46402400    -0.75700
O2060       O  0.79490936  0.20410724  0.04089020    -0.75100
O2061       O  0.77099132  0.25993695  0.46099543    -0.75600
O2062       O  0.71893762  0.25714833  0.00376206    -0.75500
O2063       O  0.71958642  0.28772373  0.03802351    -0.75300
C2064       C  0.78651837  0.34432554  0.03239773     0.76500
C2065       C  0.85862313  0.27084582  0.02971128     0.77000
C2066       C  0.77804058  0.26413207  0.10372340     0.76000
C2067       C  0.77652959  0.19211842  0.02558824     0.76400
C2068       C  0.78822584  0.27706538  0.44960134     0.77500
C2069       C  0.70670539  0.27446573  0.01891449     0.76500
Zn2070     Zn  0.54745261  0.29678846  0.29835646     1.49700
Zn2071     Zn  0.49538741  0.29537711  0.25614861     1.49400
Zn2072     Zn  0.53887522  0.24813500  0.25352003     1.49100
Zn2073     Zn  0.49842366  0.25208406  0.30716564     1.49500
O2074       O  0.51990562  0.27302991  0.27879776    -1.84700
O2075       O  0.54467645  0.33586236  0.28603128    -0.75400
O2076       O  0.49805850  0.28706198  0.21485401    -0.75200
O2077       O  0.58029285  0.25411969  0.25681228    -0.74700
O2078       O  0.50683485  0.33565946  0.25968678    -0.75400
O2079       O  0.58681377  0.28584999  0.28979923    -0.75000
O2080       O  0.52939232  0.25493390  0.21290153    -0.75600
O2081       O  0.50243340  0.21104722  0.30097128    -0.74900
O2082       O  0.95448965  0.28753759  0.26752203    -0.75700
O2083       O  0.52924422  0.20832462  0.26320161    -0.75100
O2084       O  0.95764632  0.25974459  0.30410520    -0.75600
O2085       O  0.50950860  0.26330961  0.34713125    -0.75500
O2086       O  0.54127557  0.29692923  0.34005142    -0.75300
C2087       C  0.52744153  0.34836416  0.27114313     0.76500
C2088       C  0.51283875  0.27084891  0.20082015     0.77000
C2089       C  0.59632590  0.26933839  0.27181421     0.76000
C2090       C  0.51474774  0.19687668  0.28257817     0.76400
C2091       C  0.94335530  0.27372790  0.28746531     0.77500
C2092       C  0.52591372  0.28242133  0.35646847     0.76500
C2093       C  0.61543986  0.01034480  0.25625773    -0.06700
C2094       C  0.62481833  0.02970568  0.27612345    -0.17900
C2095       C  0.65341754  0.03583115  0.28003629     0.10500
C2096       C  0.67349905  0.02301525  0.26302692    -0.06600
C2097       C  0.66367665  0.00468524  0.24227226    -0.17900
C2098       C  0.63531709  0.99820160  0.23871014     0.10500
S2099       S  0.66258271  0.05871641  0.30828487    -0.32900
S2100       S  0.62824470  0.47267742  0.21259161    -0.32900
H2101       H  0.60144908  0.48155059  0.20730280     0.28500
H2102       H  0.68128549  0.04052937  0.31989746     0.28500
H2103       H  0.60981840  0.03894939  0.28981969     0.19100
H2104       H  0.67830277  0.99492222  0.22857779     0.19100
C2105       C  0.54283916  0.43580923  0.26014616    -0.06700
C2106       C  0.53399045  0.41885341  0.23765643    -0.17900
C2107       C  0.52848931  0.39055863  0.24074345     0.10500
C2108       C  0.53190803  0.37830103  0.26693913    -0.06600
C2109       C  0.54143966  0.39458023  0.28928923    -0.17900
C2110       C  0.54714890  0.42294122  0.28627445     0.10500
S2111       S  0.51945375  0.37001975  0.21037549    -0.32900
S2112       S  0.56068320  0.44199333  0.31602748    -0.32900
H2113       H  0.56348903  0.41949535  0.33399907     0.28500
H2114       H  0.51579083  0.39186188  0.19177689     0.28500
H2115       H  0.53235142  0.42686224  0.21700790     0.19100
H2116       H  0.54446898  0.38489636  0.30926244     0.19100
C2117       C  0.54435084  0.01881687  0.19680676    -0.06700
C2118       C  0.56819114  0.02359320  0.18041412    -0.17900
C2119       C  0.56613825  0.02644683  0.15158402     0.10500
C2120       C  0.53959754  0.02499260  0.13910558    -0.06600
C2121       C  0.51573408  0.02342360  0.15598030    -0.17900
C2122       C  0.51780802  0.02013119  0.18468513     0.10500
S2123       S  0.59804093  0.03105256  0.13194875    -0.32900
S2124       S  0.98532113  0.51994819  0.20650549    -0.32900
H2125       H  0.49874171  0.51920057  0.23439296     0.28500
H2126       H  0.58686263  0.04772356  0.11125502     0.28500
H2127       H  0.58857361  0.02326232  0.18982149     0.19100
H2128       H  0.49528834  0.02306701  0.14658709     0.19100
C2129       C  0.76735175  0.10416217  0.01875684    -0.06700
C2130       C  0.74431635  0.11949632  0.02591034    -0.17900
C2131       C  0.74694475  0.14805715  0.02969541     0.10500
C2132       C  0.77322321  0.16173536  0.02623502    -0.06600
C2133       C  0.79664026  0.14604541  0.02150641    -0.17900
C2134       C  0.79397244  0.11748906  0.01767379     0.10500
S2135       S  0.71590652  0.16594507  0.03826192    -0.32900
S2136       S  0.82556267  0.10177927  0.51427911    -0.32900
H2137       H  0.81367539  0.07524849  0.51769722     0.28500
H2138       H  0.72944827  0.18688952  0.05392540     0.28500
H2139       H  0.72388947  0.10944487  0.02701846     0.19100
H2140       H  0.81696739  0.15625174  0.01936876     0.19100
C2141       C  0.76186608  0.04401469  0.43543578    -0.06700
C2142       C  0.73989737  0.03623269  0.41735764    -0.17900
C2143       C  0.74384656  0.03425188  0.38869165     0.10500
C2144       C  0.77024678  0.04044582  0.37714320    -0.06600
C2145       C  0.79255516  0.04723819  0.39468182    -0.17900
C2146       C  0.78878993  0.04923218  0.42357558     0.10500
S2147       S  0.71694777  0.52014463  0.36641626    -0.32900
S2148       S  0.81870364  0.05894908  0.44467745    -0.32900
H2149       H  0.83816842  0.06256276  0.42292035     0.28500
H2150       H  0.73313912  0.50535449  0.34755952     0.28500
H2151       H  0.71926771  0.03119129  0.42482853     0.19100
H2152       H  0.81286800  0.05157887  0.38553609     0.19100
C2153       C  0.63623292  0.03792362  0.02681694    -0.06700
C2154       C  0.65313716  0.01567739  0.03268426    -0.17900
C2155       C  0.68197312  0.01739132  0.02795252     0.10500
C2156       C  0.69466136  0.04213353  0.01804386    -0.06600
C2157       C  0.68004088  0.06574572  0.51926243    -0.17900
C2158       C  0.65126428  0.06376811  0.52394301     0.10500
S2159       S  0.70118394  0.98683483  0.03318180    -0.32900
S2160       S  0.63210442  0.09492716  0.52464268    -0.32900
H2161       H  0.65511814  0.11364123  0.52319395     0.28500
H2162       H  0.71658516  0.98949581  0.00834623     0.28500
H2163       H  0.64368276  0.99623128  0.03946728     0.19100
H2164       H  0.68956111  0.08541006  0.51350599     0.19100
C2165       C  0.51146077  0.27082415  0.16983300    -0.06700
C2166       C  0.53608679  0.26704138  0.15467502    -0.17900
C2167       C  0.53610364  0.26564007  0.12553902     0.10500
C2168       C  0.51095083  0.26749560  0.11078886    -0.06600
C2169       C  0.98882582  0.27630114  0.12432076    -0.17900
C2170       C  0.98831963  0.27814755  0.15353909     0.10500
S2171       S  0.56879484  0.26081676  0.10810241    -0.32900
S2172       S  0.95604310  0.28754313  0.16945093    -0.32900
H2173       H  0.95559152  0.26592502  0.18890140     0.28500
H2174       H  0.56136285  0.27448903  0.08366401     0.28500
H2175       H  0.55552849  0.26497803  0.16561782     0.19100
H2176       H  0.97033998  0.28082170  0.11291362     0.19100
C2177       C  0.94661683  0.26648423  0.03897118    -0.06700
C2178       C  0.92967931  0.26954001  0.06244271    -0.17900
C2179       C  0.90117713  0.27307782  0.05986606     0.10500
C2180       C  0.88900511  0.27253556  0.03316687    -0.06600
C2181       C  0.90614770  0.27129007  0.00954070    -0.17900
C2182       C  0.93482140  0.26828951  0.01219256     0.10500
S2183       S  0.88138310  0.27747708  0.09147802    -0.32900
S2184       S  0.95502454  0.26503532  0.98078904    -0.32900
H2185       H  0.97954053  0.27639536  0.99240576     0.28500
H2186       H  0.86159578  0.29438889  0.07958309     0.28500
H2187       H  0.93826721  0.26738504  0.08297244     0.19100
H2188       H  0.89700346  0.27124487  0.98896671     0.19100
C2189       C  0.52023638  0.13057997  0.03963429    -0.06700
C2190       C  0.99578102  0.13966909  0.05566484    -0.17900
C2191       C  0.99192137  0.16799266  0.05808807     0.10500
C2192       C  0.51248390  0.18811915  0.04436320    -0.06600
C2193       C  0.53369357  0.17766810  0.02742414    -0.17900
C2194       C  0.53808788  0.14959662  0.02537966     0.10500
S2195       S  0.96414152  0.17924001  0.08051840    -0.32900
S2196       S  0.56783954  0.13998518  0.00514220    -0.32900
H2197       H  0.57849170  0.12422415  0.02686629     0.28500
H2198       H  0.95758690  0.15373444  0.09316612     0.28500
H2199       H  0.98165278  0.12553608  0.06657839     0.19100
H2200       H  0.54795372  0.19082963  0.01588210     0.19100
C2201       C  0.78763544  0.02860563  0.16482442    -0.06700
C2202       C  0.76493167  0.51990400  0.15065109    -0.17900
C2203       C  0.76422876  0.51401269  0.12222440     0.10500
C2204       C  0.78795289  0.01648747  0.10737895    -0.06600
C2205       C  0.81131530  0.02925698  0.11987533    -0.17900
C2206       C  0.81162814  0.03499838  0.14846284     0.10500
S2207       S  0.73195361  0.50045211  0.10788052    -0.32900
S2208       S  0.84411058  0.04777657  0.16292695    -0.32900
H2209       H  0.84397895  0.02836125  0.18461166     0.28500
H2210       H  0.73724115  0.51044246  0.08082400     0.28500
H2211       H  0.74644905  0.51527411  0.16304229     0.19100
H2212       H  0.83019656  0.03268955  0.10784597     0.19100
C2213       C  0.78981120  0.43284367  0.04329662    -0.06700
C2214       C  0.78162626  0.41522603  0.06536538    -0.17900
C2215       C  0.78132668  0.38665618  0.06268366     0.10500
C2216       C  0.78801503  0.37456249  0.03681532    -0.06600
C2217       C  0.79546883  0.39181627  0.01443398    -0.17900
C2218       C  0.79651354  0.42058187  0.01724039     0.10500
S2219       S  0.77395773  0.36707921  0.09395697    -0.32900
S2220       S  0.81266420  0.44334744  0.48742238    -0.32900
H2221       H  0.80846867  0.41947461  0.96786351     0.28500
H2222       H  0.79573241  0.34901382  0.08973538     0.28500
H2223       H  0.77630583  0.42303378  0.08554735     0.19100
H2224       H  0.80047726  0.38265346  0.99457132     0.19100
C2225       C  0.91790670  0.01276786  0.04334392    -0.06700
C2226       C  0.90204523  0.01341301  0.01892667    -0.17900
C2227       C  0.87293721  0.01167020  0.01993808     0.10500
C2228       C  0.85908031  0.00890787  0.04578264    -0.06600
C2229       C  0.87368015  0.51276910  0.06796403    -0.17900
C2230       C  0.90280971  0.51397268  0.06767483     0.10500
S2231       S  0.85442581  0.01155688  0.98752768    -0.32900
S2232       S  0.92001822  0.51220905  0.10084362    -0.32900
H2233       H  0.94054068  0.49445003  0.09160591     0.28500
H2234       H  0.83158861  0.02519477  0.99841688     0.28500
H2235       H  0.91239809  0.01535442  0.99888818     0.19100
H2236       H  0.86298183  0.51010499  0.08769532     0.19100
C2237       C  0.76289079  0.19762181  0.25572683    -0.06700
C2238       C  0.78496807  0.19039683  0.27293599    -0.17900
C2239       C  0.79213306  0.16272421  0.27601404     0.10500
C2240       C  0.77666710  0.14178304  0.26168151    -0.06600
C2241       C  0.75561364  0.14922542  0.24355013    -0.17900
C2242       C  0.74894644  0.17666293  0.23995543     0.10500
S2243       S  0.82004104  0.15577557  0.29965368    -0.32900
S2244       S  0.72229199  0.18323221  0.21478675    -0.32900
H2245       H  0.73317060  0.20919116  0.20677301     0.28500
H2246       H  0.82303498  0.12791131  0.29327697     0.28500
H2247       H  0.79593635  0.20624956  0.28492759     0.19100
H2248       H  0.74404934  0.13335758  0.23209340     0.19100
C2249       C  0.68501960  0.26323886  0.25995348    -0.06700
C2250       C  0.66686316  0.26573353  0.23713107    -0.17900
C2251       C  0.63837295  0.26875226  0.24062064     0.10500
C2252       C  0.62667405  0.26820290  0.26753811    -0.06600
C2253       C  0.64409493  0.26510381  0.29049867    -0.17900
C2254       C  0.67289900  0.26201748  0.28709739     0.10500
S2255       S  0.61814434  0.27377926  0.20958921    -0.32900
S2256       S  0.69337038  0.25519708  0.31766285    -0.32900
H2257       H  0.67167725  0.25575471  0.33737064     0.28500
H2258       H  0.60018360  0.29256650  0.22176650     0.28500
H2259       H  0.67403444  0.26468344  0.21595639     0.19100
H2260       H  0.63486138  0.26416657  0.31109624     0.19100
C2261       C  0.76793432  0.26514984  0.19331522    -0.06700
C2262       C  0.77859773  0.24185712  0.18043506    -0.17900
C2263       C  0.78241739  0.24073213  0.15138118     0.10500
C2264       C  0.77620180  0.26375572  0.13473317    -0.06600
C2265       C  0.76758373  0.28768190  0.14811300    -0.17900
C2266       C  0.76367449  0.28869674  0.17691773     0.10500
S2267       S  0.79269939  0.20850344  0.13685583    -0.32900
S2268       S  0.75269744  0.32062793  0.19155758    -0.32900
H2269       H  0.76601680  0.31659150  0.21698823     0.28500
H2270       H  0.77266567  0.20814472  0.11560908     0.28500
H2271       H  0.78177485  0.22360555  0.19273196     0.19100
H2272       H  0.76360771  0.30586653  0.13598899     0.19100
C2273       C  0.62085917  0.29453249  0.00661386    -0.06700
C2274       C  0.64143632  0.29350778  0.48501091    -0.17900
C2275       C  0.66501325  0.27872110  0.98735119     0.10500
C2276       C  0.67712496  0.28019823  0.01403325    -0.06600
C2277       C  0.66134416  0.28961528  0.03645014    -0.17900
C2278       C  0.63371519  0.29695629  0.03316757     0.10500
S2279       S  0.69006904  0.28356510  0.45754085    -0.32900
S2280       S  0.61554718  0.30958325  0.06341328    -0.32900
H2281       H  0.63618439  0.30496259  0.08329051     0.28500
H2282       H  0.71317790  0.29913341  0.46760054     0.28500
H2283       H  0.63437088  0.29466697  0.46387063     0.19100
H2284       H  0.67085890  0.29134659  0.05677653     0.19100
C2285       C  0.53859496  0.29630662  0.44466722    -0.06700
C2286       C  0.53407937  0.31860627  0.42698534    -0.17900
C2287       C  0.52868590  0.31460420  0.39836136     0.10500
C2288       C  0.52782962  0.28766284  0.38702342    -0.06600
C2289       C  0.53073713  0.26535014  0.40503542    -0.17900
C2290       C  0.53621030  0.26941248  0.43343017     0.10500
S2291       S  0.52300323  0.34400756  0.37646494    -0.32900
S2292       S  0.03935651  0.24034016  0.45371201    -0.32900
H2293       H  0.52429688  0.24926727  0.47561265     0.28500
H2294       H  0.52729106  0.36426403  0.39710205     0.28500
H2295       H  0.53637897  0.33924201  0.43528746     0.19100
H2296       H  0.52997883  0.24461091  0.39672227     0.19100
C2297       C  0.53345549  0.41834512  0.02324721    -0.06700
C2298       C  0.54345181  0.40242534  0.04512822    -0.17900
C2299       C  0.54845406  0.37446372  0.04155942     0.10500
C2300       C  0.54391352  0.36185735  0.01535804    -0.06600
C2301       C  0.53260327  0.37850575  0.49493526    -0.17900
C2302       C  0.52811428  0.40667933  0.49812311     0.10500
S2303       S  0.05968941  0.35477946  0.07224899    -0.32900
S2304       S  0.51585046  0.42447858  0.46797067    -0.32900
H2305       H  0.53551947  0.44654972  0.47021117     0.28500
H2306       H  0.54892082  0.33019088  0.06338124     0.28500
H2307       H  0.54740410  0.41183090  0.06526565     0.19100
H2308       H  0.52858233  0.36880074  0.47497984     0.19100
C2309       C  0.51207868  0.10863837  0.29139120    -0.06700
C2310       C  0.48771367  0.12322944  0.29477244    -0.17900
C2311       C  0.48767901  0.15182094  0.29086073     0.10500
C2312       C  0.51280337  0.16638645  0.28412450    -0.06600
C2313       C  0.53697635  0.15161693  0.27980281    -0.17900
C2314       C  0.53691099  0.12303147  0.28350332     0.10500
S2315       S  0.45542068  0.16934999  0.29438690    -0.32900
S2316       S  0.56960991  0.10648324  0.28006793    -0.32900
H2317       H  0.55806227  0.08061830  0.27277305     0.28500
H2318       H  0.43787676  0.14562764  0.29677411     0.28500
H2319       H  0.46896899  0.11237444  0.30193286     0.19100
H2320       H  0.55635739  0.16256800  0.27460772     0.19100
C2321       C  0.95022286  0.03833735  0.28847835    -0.06700
C2322       C  0.93874886  0.06210052  0.27754443    -0.17900
C2323       C  0.90999368  0.06349552  0.27292064     0.10500
C2324       C  0.89212178  0.04026026  0.27842908    -0.06600
C2325       C  0.90408170  0.01589701  0.28740555    -0.17900
C2326       C  0.93268660  0.01463027  0.29219254     0.10500
S2327       S  0.89731259  0.09629099  0.26268676    -0.32900
S2328       S  0.94562666  0.98211340  0.30303122    -0.32900
H2329       H  0.97179682  0.98660270  0.29045017     0.28500
H2330       H  0.87492615  0.09546611  0.28168198     0.28500
H2331       H  0.95190535  0.08044164  0.27461309     0.19100
H2332       H  0.89096502  0.99759992  0.29096308     0.19100
C2333       C  0.52008484  0.03318190  0.42765346    -0.06700
C2334       C  0.49762716  0.04739923  0.41752435    -0.17900
C2335       C  0.49481101  0.05245607  0.38901036     0.10500
C2336       C  0.51435444  0.04174690  0.36987841    -0.06600
C2337       C  0.53751756  0.02845856  0.38078624    -0.17900
C2338       C  0.54033995  0.02383570  0.40921619     0.10500
S2339       S  0.46698009  0.07389983  0.37794391    -0.32900
S2340       S  0.57133890  0.50800751  0.42231901    -0.32900
H2341       H  0.55929603  0.49445859  0.44551747     0.28500
H2342       H  0.45367895  0.07621860  0.40394338     0.28500
H2343       H  0.48280690  0.05537100  0.43222747     0.19100
H2344       H  0.55431268  0.02206196  0.36771857     0.19100
C2345       C  0.79670718  0.37197608  0.29058372    -0.06700
C2346       C  0.82017760  0.38938255  0.28429921    -0.17900
C2347       C  0.81795992  0.41734659  0.27840334     0.10500
C2348       C  0.79176837  0.42919568  0.27892864    -0.06600
C2349       C  0.76813530  0.41235237  0.28461950    -0.17900
C2350       C  0.77021120  0.38414962  0.29072445     0.10500
S2351       S  0.84960861  0.43684983  0.26997220    -0.32900
S2352       S  0.73868319  0.36438822  0.29939820    -0.32900
H2353       H  0.71991860  0.38548225  0.29564073     0.28500
H2354       H  0.83734899  0.45474175  0.25108007     0.28500
H2355       H  0.84087908  0.38200861  0.28387766     0.19100
H2356       H  0.74807175  0.42164292  0.28528056     0.19100
C2357       C  0.85762356  0.28921942  0.30101675    -0.06700
C2358       C  0.86554764  0.27565318  0.27660998    -0.17900
C2359       C  0.89324339  0.26893368  0.27203676     0.10500
C2360       C  0.91332393  0.27543434  0.29255958    -0.06600
C2361       C  0.90498721  0.28696729  0.31782113    -0.17900
C2362       C  0.87762486  0.29461743  0.32209814     0.10500
S2363       S  0.90184993  0.25307174  0.23930919    -0.32900
S2364       S  0.87092187  0.31269903  0.35423966    -0.32900
H2365       H  0.84445071  0.32190620  0.34856199     0.28500
H2366       H  0.92513576  0.23948303  0.24904841     0.28500
H2367       H  0.85040508  0.27179804  0.26028953     0.19100
H2368       H  0.92042760  0.29198384  0.33358681     0.19100
C2369       C  0.78743508  0.29442491  0.36156944    -0.06700
C2370       C  0.80803601  0.27796436  0.37270082    -0.17900
C2371       C  0.80843387  0.27123369  0.40111529     0.10500
C2372       C  0.78755629  0.28078425  0.41901994    -0.06600
C2373       C  0.76590819  0.29559842  0.40766291    -0.17900
C2374       C  0.76544415  0.30226111  0.37924678     0.10500
S2375       S  0.83655725  0.25110578  0.41334076    -0.32900
S2376       S  0.73588227  0.32020741  0.36683290    -0.32900
H2377       H  0.73652131  0.30916451  0.33976091     0.28500
H2378       H  0.82215186  0.23910340  0.43607385     0.28500
H2379       H  0.82468050  0.27116719  0.35943196     0.19100
H2380       H  0.74943053  0.30245755  0.42116483     0.19100
C2381       C  0.79515617  0.33954626  0.79790988     0.85900
C2382       C  0.82475058  0.32898246  0.79382469    -0.54400
C2383       C  0.82720329  0.30171878  0.79893924     0.08800
C2384       C  0.79961434  0.28645949  0.80655882     0.19800
C2385       C  0.77754411  0.32096227  0.77839595    -0.55100
C2386       C  0.77946174  0.29329460  0.78291620     0.08900
C2387       C  0.78667308  0.32995662  0.82742802    -0.54600
C2388       C  0.78888699  0.30229511  0.83206664     0.09500
H2389       H  0.84285609  0.34114984  0.78720764     0.14000
H2390       H  0.80151583  0.26408450  0.81027242    -0.00300
H2391       H  0.76336562  0.32906575  0.76328123     0.14300
H2392       H  0.78060655  0.34412867  0.84364985     0.14100
C2393       C  0.51101789  0.04559969  0.83796255     0.85900
C2394       C  0.98192810  0.03845711  0.82903790    -0.54400
C2395       C  0.97795011  0.04361398  0.80138845     0.08800
C2396       C  0.00454268  0.05464509  0.78633148     0.19800
C2397       C  0.53033692  0.02934446  0.81910178    -0.55100
C2398       C  0.52651570  0.03299520  0.79135180     0.08900
C2399       C  0.51551008  0.07547149  0.82857538    -0.54600
C2400       C  0.51115523  0.07969592  0.80094083     0.09500
H2401       H  0.96512723  0.03101201  0.84257947     0.14000
H2402       H  0.00153813  0.05862646  0.76382168    -0.00300
H2403       H  0.54394585  0.01364944  0.82614012     0.14300
H2404       H  0.52038619  0.09224281  0.84293220     0.14100
C2405       C  0.59257030  0.30334623  0.50355021     0.85900
C2406       C  0.58394487  0.33242620  0.51091389    -0.54400
C2407       C  0.55601813  0.33626020  0.50934767     0.08800
C2408       C  0.53629021  0.30882445  0.00038407     0.19800
C2409       C  0.57461262  0.28427540  0.52211253    -0.55100
C2410       C  0.54667920  0.28789482  0.52081813     0.08900
C2411       C  0.57666940  0.29437742  0.97410838    -0.54600
C2412       C  0.54896844  0.29889318  0.97259896     0.09500
H2413       H  0.59877662  0.34870780  0.51704833     0.14000
H2414       H  0.51378365  0.31273170  0.99930745    -0.00300
H2415       H  0.58338471  0.26825067  0.53468512     0.14300
H2416       H  0.58738223  0.28715001  0.95585603     0.14100
C2417       C  0.71224315  0.25943370  0.75491679     0.85900
C2418       C  0.72016692  0.22984199  0.76101917    -0.54400
C2419       C  0.74766554  0.22482001  0.75724857     0.08800
C2420       C  0.76551201  0.25067354  0.74875866     0.19800
C2421       C  0.73121964  0.27762360  0.77321503    -0.55100
C2422       C  0.75893131  0.27332533  0.77035601     0.08900
C2423       C  0.72381747  0.26482504  0.72512201    -0.54600
C2424       C  0.75150778  0.26030990  0.72194163     0.09500
H2425       H  0.70484793  0.21371892  0.76647236     0.14000
H2426       H  0.78801064  0.24705191  0.74606741    -0.00300
H2427       H  0.72335244  0.29378969  0.78636957     0.14300
H2428       H  0.71193148  0.27092441  0.70732691     0.14100
C2429       C  0.79614199  0.46733917  0.54694221     0.85900
C2430       C  0.78846183  0.47918833  0.57574515    -0.54400
C2431       C  0.79546008  0.00766093  0.58050680     0.08800
C2432       C  0.80754129  0.02114812  0.55394444     0.19800
C2433       C  0.78028916  0.48489431  0.52640024    -0.55100
C2434       C  0.78607507  0.01269132  0.53136535     0.08900
C2435       C  0.82672652  0.47635608  0.54326592    -0.54600
C2436       C  0.83353021  0.00456212  0.54696278     0.09500
H2437       H  0.78064409  0.46752309  0.59340219     0.14000
H2438       H  0.81183111  0.04364350  0.55586201    -0.00300
H2439       H  0.76626103  0.47607414  0.51083866     0.14300
H2440       H  0.84301892  0.46196023  0.53935659     0.14100
C2441       C  0.51220938  0.22043808  0.54720492     0.85900
C2442       C  0.98283976  0.22923447  0.53612773    -0.54400
C2443       C  0.97842572  0.25620222  0.54147296     0.08800
C2444       C  0.00380114  0.27231169  0.55377649     0.19800
C2445       C  0.53175093  0.24001316  0.53056404    -0.55100
C2446       C  0.52739652  0.26732081  0.53442563     0.08900
C2447       C  0.51608709  0.22987707  0.57738351    -0.54600
C2448       C  0.51185457  0.25703658  0.58211258     0.09500
H2449       H  0.96669520  0.21531082  0.52786520     0.14000
H2450       H  0.00039837  0.29440944  0.55782071    -0.00300
H2451       H  0.54788926  0.23372829  0.51652012     0.14300
H2452       H  0.52158640  0.21592490  0.59393435     0.14100
C2453       C  0.75623609  0.04487114  0.96697669     0.85900
C2454       C  0.76481889  0.07354751  0.97792039    -0.54400
C2455       C  0.76241957  0.08010780  0.50490184     0.08800
C2456       C  0.75198574  0.05408439  0.52084017     0.19800
C2457       C  0.77271566  0.02470935  0.98413058    -0.55100
C2458       C  0.77242222  0.03172569  0.51219246     0.08900
C2459       C  0.72607593  0.04053532  0.97770423    -0.54600
C2460       C  0.72442349  0.04516889  0.50627800     0.09500
H2461       H  0.77166984  0.09038469  0.96437830     0.14000
H2462       H  0.74988651  0.05708263  0.54366119    -0.00300
H2463       H  0.78509426  0.00891686  0.97473087     0.14300
H2464       H  0.70784459  0.03676562  0.96503777     0.14100
C2465       C  0.54333011  0.46722823  0.75677313     0.85900
C2466       C  0.57447329  0.47378413  0.76121737    -0.54400
C2467       C  0.58455496  0.99944334  0.75560177     0.08800
C2468       C  0.55998337  0.01801204  0.74912215     0.19800
C2469       C  0.52840668  0.48631039  0.77667424    -0.55100
C2470       C  0.53797115  0.01234953  0.77211661     0.08900
C2471       C  0.53745122  0.47950464  0.72789035    -0.54600
C2472       C  0.54653595  0.00464872  0.72340014     0.09500
H2473       H  0.58915834  0.45796027  0.76551248     0.14000
H2474       H  0.56631476  0.03996799  0.74625900    -0.00300
H2475       H  0.51352663  0.47873650  0.79216406     0.14300
H2476       H  0.52827987  0.46868698  0.71035485     0.14100
Zn2477     Zn  0.55053151  0.05219963  0.50990998     1.49700
Zn2478     Zn  0.50636727  0.04617030  0.55913522     1.49400
Zn2479     Zn  0.50394685  0.00269587  0.51072287     1.49100
Zn2480     Zn  0.55564747  0.00352614  0.55285260     1.49500
O2481       O  0.52924243  0.02597623  0.53312231    -1.84700
O2482       O  0.54086873  0.09115429  0.51857613    -0.75400
O2483       O  0.96624389  0.03700069  0.55571005    -0.75200
O2484       O  0.50519996  0.01271547  0.97042834    -0.74700
O2485       O  0.51086937  0.08644514  0.55339774    -0.75400
O2486       O  0.53898324  0.04543221  0.97002812    -0.75000
O2487       O  0.96419422  0.00605046  0.52185785    -0.75600
O2488       O  0.54991009  0.46341660  0.54353075    -0.74900
O2489       O  0.51785882  0.03960116  0.59788149    -0.75700
O2490       O  0.51325610  0.46263492  0.51549673    -0.75100
O2491       O  0.55141032  0.00956088  0.59410957    -0.75600
O2492       O  0.59600444  0.01449236  0.54396665    -0.75500
O2493       O  0.59198992  0.04956647  0.51513732    -0.75300
C2494       C  0.52513239  0.10161774  0.53674518     0.76500
C2495       C  0.95224024  0.02083350  0.53986881     0.77000
C2496       C  0.52103611  0.03007001  0.95758322     0.76000
C2497       C  0.53252298  0.45031313  0.52784099     0.76400
C2498       C  0.53615230  0.02493317  0.60867917     0.77500
C2499       C  0.60702632  0.03377739  0.52919927     0.76500
Zn2500     Zn  0.80679696  0.05935786  0.74948153     1.49700
Zn2501     Zn  0.75986746  0.50703082  0.74795745     1.49400
Zn2502     Zn  0.80547516  0.01573045  0.79833179     1.49100
Zn2503     Zn  0.75399622  0.05644562  0.79047536     1.49500
O2504       O  0.78198336  0.03444440  0.77175587    -1.84700
O2505       O  0.80155322  0.04936360  0.70919337    -0.75400
O2506       O  0.76855725  0.46748485  0.75926336    -0.75200
O2507       O  0.84640568  0.02523901  0.79284625    -0.74700
O2508       O  0.77218094  0.01269554  0.70906549    -0.75400
O2509       O  0.84819153  0.05597095  0.75880835    -0.75000
O2510       O  0.79831132  0.47473827  0.79391092    -0.75600
O2511       O  0.75756171  0.05119126  0.83161465    -0.74900
O2512       O  0.71972170  0.00910792  0.75279228    -0.75700
O2513       O  0.79445357  0.02543369  0.83721351    -0.75100
O2514       O  0.71398473  0.04493897  0.78021232    -0.75600
O2515       O  0.75952806  0.09704078  0.78149849    -0.75500
O2516       O  0.79662710  0.09954106  0.75363176    -0.75300
C2517       C  0.78768089  0.03053653  0.69627312     0.76500
C2518       C  0.78439341  0.45839100  0.77808974     0.77000
C2519       C  0.86037647  0.04132866  0.77668068     0.76000
C2520       C  0.77433268  0.03865212  0.84707356     0.76400
C2521       C  0.70368772  0.02533528  0.76544079     0.77500
C2522       C  0.77704487  0.11097443  0.76671797     0.76500
Zn2523     Zn  0.76242148  0.29346329  0.55188069     1.49700
Zn2524     Zn  0.81112567  0.29620599  0.50587495     1.49400
Zn2525     Zn  0.80566527  0.24652034  0.55101504     1.52700
Zn2526     Zn  0.75875403  0.24627807  0.00039101     1.49500
O2527       O  0.78533405  0.27171561  0.52734604    -1.84700
O2528       O  0.77348754  0.33292009  0.54875694    -0.75400
O2529       O  0.85091079  0.28827567  0.51537868    -0.75200
O2530       O  0.79638358  0.25050270  0.59232763    -0.74700
O2531       O  0.80578992  0.33630115  0.51583050    -0.75400
O2532       O  0.76520554  0.28280203  0.59226174    -0.75000
O2533       O  0.84677139  0.25460786  0.54666541    -0.75600
O2534       O  0.76315726  0.21022784  0.50873089    -0.74900
O2535       O  0.80078967  0.28803544  0.96203987    -0.75700
O2536       O  0.79612400  0.20685302  0.54081618    -0.75100
O2537       O  0.76864046  0.25391182  0.95967185    -0.75600
O2538       O  0.72156462  0.26250251  0.50515949    -0.75500
O2539       O  0.72263115  0.29201333  0.54040515    -0.75300
C2540       C  0.79024915  0.34739690  0.53388301     0.76500
C2541       C  0.86165946  0.27173073  0.53242051     0.77000
C2542       C  0.77957685  0.26562559  0.60529446     0.76000
C2543       C  0.77797561  0.19581270  0.52461716     0.76400
C2544       C  0.78495076  0.27171011  0.94792846     0.77500
C2545       C  0.70964080  0.27961600  0.52082766     0.76500
Zn2546     Zn  0.54311180  0.29774557  0.79942462     1.49700
Zn2547     Zn  0.49180446  0.29459973  0.75640183     1.49400
Zn2548     Zn  0.53628388  0.24834227  0.75492784     1.49100
Zn2549     Zn  0.49514651  0.25165240  0.80782101     1.49500
O2550       O  0.51649952  0.27307698  0.77968364    -1.84700
O2551       O  0.53864980  0.33698378  0.78770591    -0.75400
O2552       O  0.49653200  0.28704020  0.71495842    -0.75200
O2553       O  0.57750042  0.25488411  0.75916099    -0.74700
O2554       O  0.50110476  0.33528599  0.76095802    -0.75400
O2555       O  0.58292135  0.28799433  0.79099238    -0.75000
O2556       O  0.52815995  0.25522784  0.71408667    -0.75600
O2557       O  0.49951969  0.21066573  0.80157552    -0.74900
O2558       O  0.95220912  0.28720415  0.76567170    -0.75700
O2559       O  0.52651389  0.20838691  0.76397643    -0.75100
O2560       O  0.95491468  0.25985507  0.80266883    -0.75600
O2561       O  0.50571427  0.26281128  0.84782776    -0.75500
O2562       O  0.53693264  0.29694482  0.84102143    -0.75300
C2563       C  0.52091386  0.34885472  0.77282450     0.76500
C2564       C  0.51206434  0.27112674  0.70137369     0.77000
C2565       C  0.59296579  0.27097834  0.77381960     0.76000
C2566       C  0.51188052  0.19665708  0.78309214     0.76400
C2567       C  0.94080620  0.27359680  0.78561556     0.77500
C2568       C  0.52178010  0.28210754  0.85732093     0.76500
C2569       C  0.61453007  0.00868551  0.75555294    -0.06700
C2570       C  0.62401832  0.02772788  0.77564855    -0.17900
C2571       C  0.65262827  0.03358854  0.77968026     0.10500
C2572       C  0.67267242  0.02091433  0.76249035    -0.06600
C2573       C  0.66276919  0.00280162  0.74156884    -0.17900
C2574       C  0.63434617  0.99652294  0.73794357     0.10500
S2575       S  0.66181673  0.05590463  0.80838063    -0.32900
S2576       S  0.62282039  0.47035913  0.71473604    -0.32900
H2577       H  0.59644044  0.47996836  0.70881544     0.28500
H2578       H  0.68006827  0.03720128  0.81989256     0.28500
H2579       H  0.60906924  0.03690728  0.78944961     0.19100
H2580       H  0.67736084  0.99307635  0.72780865     0.19100
C2581       C  0.53555915  0.43648634  0.76147030    -0.06700
C2582       C  0.52544257  0.41961123  0.73945317    -0.17900
C2583       C  0.51976388  0.39134379  0.74275900     0.10500
C2584       C  0.52406820  0.37901863  0.76881510    -0.06600
C2585       C  0.53363516  0.39547990  0.79103566    -0.17900
C2586       C  0.53935914  0.42383498  0.78782350     0.10500
S2587       S  0.50931981  0.37095675  0.71270130    -0.32900
S2588       S  0.55253771  0.44303029  0.81762833    -0.32900
H2589       H  0.54579347  0.42298847  0.83790249     0.28500
H2590       H  0.50712380  0.39266577  0.69364758     0.28500
H2591       H  0.52267394  0.42769332  0.71899965     0.19100
H2592       H  0.53712756  0.38588729  0.81097240     0.19100
C2593       C  0.54323424  0.01827845  0.69652575    -0.06700
C2594       C  0.56724574  0.02388307  0.68063001    -0.17900
C2595       C  0.56556437  0.02736903  0.65186477     0.10500
C2596       C  0.53926075  0.02557229  0.63897189    -0.06600
C2597       C  0.51512541  0.02312459  0.65538145    -0.17900
C2598       C  0.51682462  0.01932184  0.68404966     0.10500
S2599       S  0.59762456  0.03322184  0.63276017    -0.32900
S2600       S  0.98264282  0.51665626  0.70374712    -0.32900
H2601       H  0.49476079  0.52380328  0.73065262     0.28500
H2602       H  0.58624692  0.04977900  0.61208029     0.28500
H2603       H  0.58750029  0.02374143  0.69033869     0.19100
H2604       H  0.49484463  0.02252559  0.64562667     0.19100
C2605       C  0.76724258  0.10792484  0.51692565    -0.06700
C2606       C  0.74415415  0.12420511  0.52039290    -0.17900
C2607       C  0.74702535  0.15263769  0.52409925     0.10500
C2608       C  0.77386445  0.16550765  0.52430337    -0.06600
C2609       C  0.79717099  0.14906498  0.52273190    -0.17900
C2610       C  0.79419013  0.12051138  0.51872984     0.10500
S2611       S  0.71559180  0.17134442  0.52787894    -0.32900
S2612       S  0.82508255  0.09936448  0.00993784    -0.32900
H2613       H  0.81470647  0.07331586  0.01847657     0.28500
H2614       H  0.72691498  0.19109275  0.54647933     0.28500
H2615       H  0.72343752  0.11494807  0.51869735     0.19100
H2616       H  0.81787331  0.15869425  0.52315250     0.19100
C2617       C  0.76138207  0.04196018  0.93555242    -0.06700
C2618       C  0.73959270  0.03362993  0.91746382    -0.17900
C2619       C  0.74348729  0.03200460  0.88878886     0.10500
C2620       C  0.76976508  0.03873806  0.87725078    -0.06600
C2621       C  0.79202142  0.04566523  0.89479663    -0.17900
C2622       C  0.78825039  0.04745189  0.92370200     0.10500
S2623       S  0.71012304  0.52413256  0.86621293    -0.32900
S2624       S  0.81807294  0.05728176  0.94478127    -0.32900
H2625       H  0.83781138  0.05992520  0.92315728     0.28500
H2626       H  0.72502945  0.50867958  0.84683495     0.28500
H2627       H  0.71921667  0.02755834  0.92495004     0.19100
H2628       H  0.81227200  0.05032847  0.88564715     0.19100
C2629       C  0.63789904  0.03760026  0.52787868    -0.06700
C2630       C  0.65439581  0.01443229  0.52931698    -0.17900
C2631       C  0.68329342  0.01665973  0.52509516     0.10500
C2632       C  0.69634665  0.04258171  0.51937772    -0.06600
C2633       C  0.67821125  0.06484355  0.01390216    -0.17900
C2634       C  0.64936127  0.06324857  0.01842300     0.10500
S2635       S  0.70217845  0.98550416  0.52514019    -0.32900
S2636       S  0.63005144  0.09390107  0.01309642    -0.32900
H2637       H  0.65302834  0.11244731  0.00990964     0.28500
H2638       H  0.72637982  0.99820205  0.53602275     0.28500
H2639       H  0.64460121  0.99423817  0.53257972     0.19100
H2640       H  0.68786382  0.08351660  0.00549050     0.19100
C2641       C  0.51221550  0.27136439  0.67023229    -0.06700
C2642       C  0.53695125  0.26514903  0.65623301    -0.17900
C2643       C  0.53830333  0.26372467  0.62710168     0.10500
C2644       C  0.51434959  0.26818977  0.61105234    -0.06600
C2645       C  0.99130295  0.27777562  0.62234110    -0.17900
C2646       C  0.98974746  0.27977191  0.65156588     0.10500
S2647       S  0.57115607  0.25562132  0.61146234    -0.32900
S2648       S  0.95761377  0.29118635  0.66613328    -0.32900
H2649       H  0.95496889  0.26952728  0.68546235     0.28500
H2650       H  0.56610361  0.26836450  0.58583464     0.28500
H2651       H  0.55544974  0.26111536  0.66808242     0.19100
H2652       H  0.97353464  0.28308606  0.61009411     0.19100
C2653       C  0.95017401  0.26655392  0.53927014    -0.06700
C2654       C  0.93342250  0.26472232  0.56315595    -0.17900
C2655       C  0.90477639  0.26792749  0.56180144     0.10500
C2656       C  0.89219747  0.27223657  0.53570368    -0.06600
C2657       C  0.90915322  0.27535830  0.51192987    -0.17900
C2658       C  0.93794372  0.27234403  0.51336464     0.10500
S2659       S  0.88556303  0.26596773  0.59414599    -0.32900
S2660       S  0.95732036  0.27412160  0.48108871    -0.32900
H2661       H  0.98384767  0.27668420  0.49275348     0.28500
H2662       H  0.86645707  0.28581886  0.58674907     0.28500
H2663       H  0.94247152  0.25924191  0.58284825     0.19100
H2664       H  0.89975911  0.27877646  0.49183740     0.19100
C2665       C  0.52285321  0.13188459  0.53887250    -0.06700
C2666       C  0.00099865  0.14153418  0.55272381    -0.17900
C2667       C  0.99682808  0.16973366  0.55510249     0.10500
C2668       C  0.51574997  0.18941783  0.54414622    -0.06600
C2669       C  0.53823476  0.17900834  0.52899296    -0.17900
C2670       C  0.54222367  0.15087339  0.52667559     0.10500
S2671       S  0.96855415  0.18060333  0.57717300    -0.32900
S2672       S  0.57366794  0.14102498  0.50950494    -0.32900
H2673       H  0.58105883  0.12403929  0.53170715     0.28500
H2674       H  0.95691117  0.15439181  0.58355808     0.28500
H2675       H  0.98696739  0.12728571  0.56360160     0.19100
H2676       H  0.55401821  0.19228785  0.51968223     0.19100
C2677       C  0.78923968  0.02938794  0.66555935    -0.06700
C2678       C  0.76351988  0.52056771  0.64925482    -0.17900
C2679       C  0.76399794  0.51645675  0.62047199     0.10500
C2680       C  0.79107983  0.02174485  0.60742388    -0.06600
C2681       C  0.81437781  0.03261278  0.62153895    -0.17900
C2682       C  0.81404979  0.03573713  0.65050197     0.10500
S2683       S  0.73202911  0.50535848  0.60374673    -0.32900
S2684       S  0.84672559  0.04479976  0.66699764    -0.32900
H2685       H  0.84352172  0.02501545  0.68823753     0.28500
H2686       H  0.73919587  0.51725289  0.57791978     0.28500
H2687       H  0.74422748  0.51647963  0.66052401     0.19100
H2688       H  0.83361742  0.03639846  0.61039943     0.19100
C2689       C  0.79189280  0.43613149  0.54236046    -0.06700
C2690       C  0.78143372  0.41894003  0.56388979    -0.17900
C2691       C  0.78183600  0.39038081  0.56217005     0.10500
C2692       C  0.79110615  0.37773028  0.53746226    -0.06600
C2693       C  0.80003720  0.39452686  0.51517399    -0.17900
C2694       C  0.80057910  0.42336776  0.51722462     0.10500
S2695       S  0.77180044  0.37168776  0.59333524    -0.32900
S2696       S  0.80714024  0.44108145  0.98725039    -0.32900
H2697       H  0.82102742  0.42128694  0.47081133     0.28500
H2698       H  0.79461100  0.35446383  0.59226756     0.28500
H2699       H  0.77353874  0.42704027  0.58301860     0.19100
H2700       H  0.80648571  0.38497078  0.49595389     0.19100
C2701       C  0.92147388  0.01950230  0.54203429    -0.06700
C2702       C  0.90585546  0.01608546  0.51756069    -0.17900
C2703       C  0.87674991  0.01421918  0.51834003     0.10500
C2704       C  0.86260096  0.01545971  0.54412899    -0.06600
C2705       C  0.87700184  0.51675153  0.56806588    -0.17900
C2706       C  0.90611026  0.51891753  0.56734195     0.10500
S2707       S  0.85878065  0.00860366  0.48590956    -0.32900
S2708       S  0.92384520  0.51875705  0.60032390    -0.32900
H2709       H  0.94450041  0.50093374  0.59154149     0.28500
H2710       H  0.83444383  0.02120838  0.49451906     0.28500
H2711       H  0.91639811  0.01469311  0.49763732     0.19100
H2712       H  0.86667493  0.51434358  0.58799406     0.19100
C2713       C  0.75764034  0.19614536  0.75702329    -0.06700
C2714       C  0.77990322  0.18931722  0.77418444    -0.17900
C2715       C  0.78771324  0.16184574  0.77703544     0.10500
C2716       C  0.77269293  0.14065178  0.76272692    -0.06600
C2717       C  0.75120548  0.14762418  0.74490689    -0.17900
C2718       C  0.74386101  0.17490193  0.74143979     0.10500
S2719       S  0.81575102  0.15505238  0.80044769    -0.32900
S2720       S  0.71667923  0.18074364  0.71660093    -0.32900
H2721       H  0.72611315  0.20724325  0.70879920     0.28500
H2722       H  0.82491659  0.13167917  0.78647996     0.28500
H2723       H  0.79070083  0.20534194  0.78609596     0.19100
H2724       H  0.73988651  0.13151444  0.73355499     0.19100
C2725       C  0.68110074  0.26395304  0.76040870    -0.06700
C2726       C  0.66348963  0.27248266  0.73889835    -0.17900
C2727       C  0.63511789  0.27586000  0.74322454     0.10500
C2728       C  0.62327130  0.27051428  0.76957941    -0.06600
C2729       C  0.64036784  0.26294809  0.79148933    -0.17900
C2730       C  0.66899953  0.25949432  0.78731713     0.10500
S2731       S  0.61502268  0.28731448  0.71408466    -0.32900
S2732       S  0.68944827  0.24879592  0.81664579    -0.32900
H2733       H  0.66805884  0.24834256  0.83673086     0.28500
H2734       H  0.59633752  0.30252952  0.72993434     0.28500
H2735       H  0.67110525  0.27681232  0.71826318     0.19100
H2736       H  0.63100846  0.25891737  0.81169652     0.19100
C2737       C  0.76509158  0.26264431  0.69410127    -0.06700
C2738       C  0.77216068  0.23860398  0.67999963    -0.17900
C2739       C  0.77737247  0.23878895  0.65115516     0.10500
C2740       C  0.77646618  0.26379958  0.63610447    -0.06600
C2741       C  0.77131135  0.28807802  0.65081639    -0.17900
C2742       C  0.76583587  0.28773166  0.67942744     0.10500
S2743       S  0.78220308  0.20607059  0.63456038    -0.32900
S2744       S  0.75974803  0.31991684  0.69638911    -0.32900
H2745       H  0.77496861  0.31278262  0.71995260     0.28500
H2746       H  0.76457181  0.21117937  0.61203127     0.28500
H2747       H  0.77160283  0.21920974  0.69106675     0.19100
H2748       H  0.77124555  0.30754261  0.63987612     0.19100
C2749       C  0.62380224  0.29905143  0.50776764    -0.06700
C2750       C  0.63732338  0.28591613  0.98400777    -0.17900
C2751       C  0.66933195  0.28752899  0.48863096     0.10500
C2752       C  0.68037842  0.28622822  0.51571586    -0.06600
C2753       C  0.66362249  0.29321751  0.53838041    -0.17900
C2754       C  0.63585268  0.30013197  0.53479930     0.10500
S2755       S  0.68494351  0.26959350  0.95680871    -0.32900
S2756       S  0.61637608  0.31012912  0.56528668    -0.32900
H2757       H  0.63856094  0.31112211  0.58424217     0.28500
H2758       H  0.66283695  0.26802690  0.93776730     0.28500
H2759       H  0.62929813  0.28518606  0.96325480     0.19100
H2760       H  0.67236770  0.29310389  0.55909612     0.19100
C2761       C  0.53426668  0.29475616  0.94558345    -0.06700
C2762       C  0.53233163  0.31743928  0.92786339    -0.17900
C2763       C  0.52687333  0.31401525  0.89926159     0.10500
C2764       C  0.52353908  0.28716446  0.88790792    -0.06600
C2765       C  0.52364276  0.26458778  0.90602528    -0.17900
C2766       C  0.52905406  0.26811300  0.93449415     0.10500
S2767       S  0.52445985  0.34412835  0.87753513    -0.32900
S2768       S  0.03006410  0.23830973  0.95413693    -0.32900
H2769       H  0.51649981  0.24972571  0.97758797     0.28500
H2770       H  0.52784861  0.36386024  0.89882562     0.28500
H2771       H  0.53692009  0.33779370  0.93610016     0.19100
H2772       H  0.52082037  0.24393133  0.89775669     0.19100
C2773       C  0.53513451  0.42017089  0.52355352    -0.06700
C2774       C  0.54556365  0.40447262  0.54536384    -0.17900
C2775       C  0.54993751  0.37635587  0.54211486     0.10500
C2776       C  0.54456786  0.36339597  0.51621698    -0.06600
C2777       C  0.53285200  0.37729403  0.99380330    -0.17900
C2778       C  0.52800550  0.40535065  0.99723775     0.10500
S2779       S  0.06222594  0.35852928  0.57118692    -0.32900
S2780       S  0.51750892  0.42375475  0.96677298    -0.32900
H2781       H  0.53654346  0.44600307  0.97110473     0.28500
H2782       H  0.55078336  0.33222560  0.56413021     0.28500
H2783       H  0.55039306  0.41417984  0.56517557     0.19100
H2784       H  0.52966129  0.36791171  0.97357514     0.19100
C2785       C  0.50972154  0.10815398  0.79021711    -0.06700
C2786       C  0.48597400  0.12271971  0.79678386    -0.17900
C2787       C  0.48557448  0.15138452  0.79352183     0.10500
C2788       C  0.50983449  0.16605772  0.78413439    -0.06600
C2789       C  0.53309687  0.15117864  0.77620400    -0.17900
C2790       C  0.53321787  0.12250806  0.77907566     0.10500
S2791       S  0.45388174  0.16873159  0.80120893    -0.32900
S2792       S  0.56449582  0.10546559  0.76994432    -0.32900
H2793       H  0.55024117  0.08168548  0.76024990     0.28500
H2794       H  0.43694086  0.14499352  0.80618398     0.28500
H2795       H  0.46811332  0.11166659  0.80572665     0.19100
H2796       H  0.55171620  0.16203599  0.76861829     0.19100
C2797       C  0.94952399  0.04187200  0.78903583    -0.06700
C2798       C  0.93700581  0.06616198  0.78090623    -0.17900
C2799       C  0.90817565  0.06673860  0.77618337     0.10500
C2800       C  0.89134265  0.04228830  0.77897745    -0.06600
C2801       C  0.90438693  0.01771024  0.78528698    -0.17900
C2802       C  0.93306503  0.01725901  0.78997070     0.10500
S2803       S  0.89398480  0.09973372  0.76925150    -0.32900
S2804       S  0.94788410  0.98462409  0.79673813    -0.32900
H2805       H  0.97117848  0.99080812  0.77981802     0.28500
H2806       H  0.87109770  0.09580986  0.78736395     0.28500
H2807       H  0.94937967  0.08520724  0.78009360     0.19100
H2808       H  0.89209804  0.99860149  0.78670769     0.19100
C2809       C  0.51845683  0.03281160  0.92744245    -0.06700
C2810       C  0.49729400  0.04868485  0.91707532    -0.17900
C2811       C  0.49510320  0.05391729  0.88849904     0.10500
C2812       C  0.51418876  0.04218833  0.86953538    -0.06600
C2813       C  0.53618638  0.02731717  0.88070783    -0.17900
C2814       C  0.53822621  0.02225727  0.90916463     0.10500
S2815       S  0.46842289  0.07654955  0.87706804    -0.32900
S2816       S  0.56123671  0.49743998  0.92352550    -0.32900
H2817       H  0.54965753  0.48997249  0.94941956     0.28500
H2818       H  0.45392507  0.07794341  0.90250588     0.28500
H2819       H  0.48291856  0.05762769  0.93161670     0.19100
H2820       H  0.55255219  0.01968384  0.86787115     0.19100
C2821       C  0.79181016  0.37085921  0.79328347    -0.06700
C2822       C  0.81545047  0.38896593  0.79095727    -0.17900
C2823       C  0.81346563  0.41691116  0.78490531     0.10500
C2824       C  0.78718134  0.42828040  0.78187814    -0.06600
C2825       C  0.76334672  0.41101876  0.78538710    -0.17900
C2826       C  0.76526934  0.38279245  0.79177110     0.10500
S2827       S  0.84565987  0.43693718  0.78094992    -0.32900
S2828       S  0.73358850  0.36289102  0.79946089    -0.32900
H2829       H  0.71485586  0.38373065  0.79431500     0.28500
H2830       H  0.83610946  0.45387799  0.75961583     0.28500
H2831       H  0.83610677  0.38212982  0.79440113     0.19100
H2832       H  0.74316509  0.41999975  0.78421292     0.19100
C2833       C  0.85491402  0.28960286  0.79884223    -0.06700
C2834       C  0.86239349  0.27322791  0.77610124    -0.17900
C2835       C  0.89019177  0.26646844  0.77165412     0.10500
C2836       C  0.91078145  0.27584370  0.79065028    -0.06600
C2837       C  0.90299103  0.29070104  0.81417093    -0.17900
C2838       C  0.87557936  0.29815898  0.81828663     0.10500
S2839       S  0.89823681  0.24676496  0.74102536    -0.32900
S2840       S  0.86958016  0.32048493  0.84767710    -0.32900
H2841       H  0.84060718  0.31885675  0.84807402     0.28500
H2842       H  0.92236136  0.23530244  0.75162079     0.28500
H2843       H  0.84678851  0.26698046  0.76091937     0.19100
H2844       H  0.91881730  0.29807925  0.82865925     0.19100
C2845       C  0.78516279  0.28985999  0.86030660    -0.06700
C2846       C  0.80730406  0.27581390  0.87189352    -0.17900
C2847       C  0.80729926  0.26840343  0.90014017     0.10500
C2848       C  0.78445650  0.27467985  0.91726025    -0.06600
C2849       C  0.76137558  0.28667080  0.90519407    -0.17900
C2850       C  0.76140828  0.29416381  0.87699454     0.10500
S2851       S  0.83736893  0.25179310  0.91329258    -0.32900
S2852       S  0.73052560  0.30911084  0.86358080    -0.32900
H2853       H  0.73408047  0.29982330  0.83612213     0.28500
H2854       H  0.82345366  0.23760500  0.93506645     0.28500
H2855       H  0.82535506  0.27169079  0.85921175     0.19100
H2856       H  0.74352842  0.29109981  0.91807626     0.19100
C2857       C  0.80051784  0.84081189  0.29834085     0.85900
C2858       C  0.83006999  0.82985562  0.29515092    -0.54400
C2859       C  0.83197525  0.80262996  0.30095625     0.08800
C2860       C  0.80406988  0.78793302  0.30852318     0.19800
C2861       C  0.78294199  0.82199355  0.27908132    -0.55100
C2862       C  0.78436147  0.79445907  0.28430821     0.08900
C2863       C  0.79168303  0.83214426  0.32803347    -0.54600
C2864       C  0.79342006  0.80461480  0.33352839     0.09500
H2865       H  0.84857191  0.84170085  0.28912780     0.14000
H2866       H  0.80559283  0.76562263  0.31284049    -0.00300
H2867       H  0.76903442  0.82998996  0.26366520     0.14300
H2868       H  0.78597628  0.84690944  0.34384232     0.14100
C2869       C  0.51069109  0.54362855  0.33934805     0.85900
C2870       C  0.98470214  0.53866090  0.32965365    -0.54400
C2871       C  0.98037992  0.54336810  0.30203258     0.08800
C2872       C  0.00680825  0.55424013  0.28653975     0.19800
C2873       C  0.53112104  0.52836930  0.32088970    -0.55100
C2874       C  0.52861822  0.53297819  0.29314084     0.08900
C2875       C  0.51493443  0.57390631  0.33138751    -0.54600
C2876       C  0.51208294  0.57914953  0.30375746     0.09500
H2877       H  0.96807683  0.53164622  0.34362579     0.14000
H2878       H  0.00353154  0.55823103  0.26409297    -0.00300
H2879       H  0.54412526  0.51222793  0.32817956     0.14300
H2880       H  0.51877968  0.59014195  0.34661977     0.14100
C2881       C  0.58916003  0.80128515  0.00498360     0.85900
C2882       C  0.58075828  0.83047252  0.01224660    -0.54400
C2883       C  0.55283071  0.83436019  0.01104989     0.08800
C2884       C  0.53881277  0.81025537  0.50175506     0.19800
C2885       C  0.57153020  0.78242835  0.02401414    -0.55100
C2886       C  0.54360811  0.78604678  0.02311311     0.08900
C2887       C  0.57997061  0.79786732  0.47544170    -0.54600
C2888       C  0.55204482  0.80123885  0.47388217     0.09500
H2889       H  0.59573452  0.84682372  0.01783887     0.14000
H2890       H  0.51612422  0.81322025  0.50064329    -0.00300
H2891       H  0.58050212  0.76647194  0.03652722     0.14300
H2892       H  0.59111502  0.79084700  0.45734209     0.14100
C2893       C  0.71668107  0.75968965  0.25779849     0.85900
C2894       C  0.72536315  0.73056575  0.26460726    -0.54400
C2895       C  0.75277695  0.72583657  0.25981824     0.08800
C2896       C  0.76996317  0.75170841  0.25030467     0.19800
C2897       C  0.73586336  0.77875999  0.27511929    -0.55100
C2898       C  0.76362805  0.77458609  0.27183038     0.08900
C2899       C  0.72741928  0.76493156  0.22776487    -0.54600
C2900       C  0.75499273  0.76066874  0.22370836     0.09500
H2901       H  0.71046282  0.71438014  0.27093714     0.14000
H2902       H  0.79243969  0.74834655  0.24702950    -0.00300
H2903       H  0.72818082  0.79521302  0.28800299     0.14300
H2904       H  0.71505930  0.77192326  0.21065036     0.14100
C2905       C  0.79326502  0.96248705  0.04904073     0.85900
C2906       C  0.78601179  0.97452261  0.07790257    -0.54400
C2907       C  0.79194241  0.50399122  0.07903572     0.08800
C2908       C  0.80329446  0.51743172  0.05217403     0.19800
C2909       C  0.77707798  0.98024697  0.02888979    -0.55100
C2910       C  0.78133594  0.50886452  0.03007277     0.08900
C2911       C  0.82385076  0.97115599  0.04468466    -0.54600
C2912       C  0.82920265  0.50096319  0.04478864     0.09500
H2913       H  0.77722934  0.96304271  0.09528013     0.14000
H2914       H  0.80755094  0.53994376  0.05396309    -0.00300
H2915       H  0.76251607  0.97163511  0.01373775     0.14300
H2916       H  0.83987640  0.95653652  0.04050981     0.14100
C2917       C  0.50908972  0.71871181  0.04999683     0.85900
C2918       C  0.97799197  0.72666004  0.03991909    -0.54400
C2919       C  0.97407767  0.75387174  0.04414044     0.08800
C2920       C  0.99981236  0.76993732  0.05598046     0.19800
C2921       C  0.52884601  0.73811171  0.03330169    -0.55100
C2922       C  0.52454771  0.76548256  0.03693265     0.08900
C2923       C  0.51316737  0.72837980  0.08005595    -0.54600
C2924       C  0.50898654  0.75555771  0.08458883     0.09500
H2925       H  0.96161642  0.71265633  0.03222101     0.14000
H2926       H  0.99679575  0.79218562  0.05950268    -0.00300
H2927       H  0.54530524  0.73173535  0.01969888     0.14300
H2928       H  0.51895701  0.71462055  0.09666624     0.14100
C2929       C  0.75724653  0.54861220  0.46509810     0.85900
C2930       C  0.76491797  0.57763853  0.47577244    -0.54400
C2931       C  0.75790472  0.57635966  0.00508185     0.08800
C2932       C  0.74711211  0.55007087  0.02013847     0.19800
C2933       C  0.77446999  0.52918398  0.48228400    -0.55100
C2934       C  0.76741828  0.52783475  0.01107805     0.08900
C2935       C  0.72722456  0.54324702  0.47596310    -0.54600
C2936       C  0.71970048  0.54208650  0.00505471     0.09500
H2937       H  0.77136644  0.59450745  0.46209706     0.14000
H2938       H  0.74477657  0.55244708  0.04302572    -0.00300
H2939       H  0.78718124  0.51364538  0.47289527     0.14300
H2940       H  0.70910672  0.53862274  0.46336918     0.14100
C2941       C  0.54704260  0.96642432  0.25584166     0.85900
C2942       C  0.57806277  0.97365738  0.26006082    -0.54400
C2943       C  0.58769726  0.50136015  0.25660585     0.08800
C2944       C  0.56265190  0.51950246  0.25080283     0.19800
C2945       C  0.53171378  0.98555253  0.27548931    -0.55100
C2946       C  0.54093529  0.51285305  0.27384645     0.08900
C2947       C  0.54065124  0.97810402  0.22682901    -0.54600
C2948       C  0.54918696  0.50644893  0.22498509     0.09500
H2949       H  0.59315236  0.95825413  0.26453402     0.14000
H2950       H  0.56848178  0.54160380  0.24832012    -0.00300
H2951       H  0.51688387  0.97798549  0.29102534     0.14300
H2952       H  0.53108837  0.96693058  0.20970604     0.14100
Zn2953     Zn  0.54537271  0.55032392  0.01250189     1.49700
Zn2954     Zn  0.50194256  0.54387839  0.06214951     1.49400
Zn2955     Zn  0.49959099  0.50025468  0.01342844     1.49100
Zn2956     Zn  0.55200124  0.50178147  0.05502786     1.49500
O2957       O  0.52472983  0.52379386  0.03579138    -1.84700
O2958       O  0.53620786  0.58899798  0.02190684    -0.75400
O2959       O  0.96165097  0.53138610  0.05722907    -0.75200
O2960       O  0.50588966  0.51244673  0.47219370    -0.74700
O2961       O  0.50644166  0.58439383  0.05684723    -0.75400
O2962       O  0.53992243  0.54483934  0.47041249    -0.75000
O2963       O  0.96062985  0.50272778  0.02128405    -0.75600
O2964       O  0.54799996  0.96207882  0.04296992    -0.74900
O2965       O  0.51451743  0.53755687  0.10061157    -0.75700
O2966       O  0.51216775  0.96159249  0.01382047    -0.75100
O2967       O  0.54842274  0.50793719  0.09629085    -0.75600
O2968       O  0.59212175  0.51376334  0.04592562    -0.75500
O2969       O  0.58675988  0.54790836  0.01646986    -0.75300
C2970       C  0.52079907  0.59955490  0.04024423     0.76500
C2971       C  0.94815395  0.51601986  0.04020270     0.77000
C2972       C  0.52173925  0.52918276  0.45867539     0.76000
C2973       C  0.53090637  0.94910744  0.02691211     0.76400
C2974       C  0.53348257  0.52345575  0.11104726     0.77500
C2975       C  0.60250079  0.53287575  0.03051534     0.76500
Zn2976     Zn  0.81024301  0.56024415  0.24766591     1.49700
Zn2977     Zn  0.76211362  0.00748690  0.24960759     1.49400
Zn2978     Zn  0.80773319  0.51629439  0.29685929     1.49100
Zn2979     Zn  0.75747961  0.55786786  0.28933407     1.49500
O2980       O  0.78504214  0.53581151  0.27025898    -1.84700
O2981       O  0.80415059  0.55122539  0.20670125    -0.75400
O2982       O  0.77135121  0.96818120  0.26040043    -0.75200
O2983       O  0.84847426  0.52604623  0.29229390    -0.74700
O2984       O  0.77385529  0.51542518  0.20776452    -0.75400
O2985       O  0.85143610  0.55542747  0.25708590    -0.75000
O2986       O  0.80168770  0.97540784  0.29453645    -0.75600
O2987       O  0.76086565  0.55258062  0.33030278    -0.74900
O2988       O  0.72240200  0.51188587  0.25177008    -0.75700
O2989       O  0.79641658  0.52515311  0.33600292    -0.75100
O2990       O  0.71723341  0.54760626  0.27935928    -0.75600
O2991       O  0.76389965  0.59799746  0.28074873    -0.75500
O2992       O  0.80139611  0.60071226  0.25334951    -0.75300
C2993       C  0.78926495  0.53275278  0.19426335     0.76500
C2994       C  0.78769963  0.95912018  0.27874255     0.77000
C2995       C  0.86301273  0.54128539  0.27580751     0.76000
C2996       C  0.77692335  0.53927589  0.34579861     0.76400
C2997       C  0.70663066  0.52826921  0.26450482     0.77500
C2998       C  0.78177909  0.61200858  0.26654232     0.76500
Zn2999     Zn  0.75847015  0.78871714  0.05217200     1.49700
Zn3000     Zn  0.80639290  0.79147681  0.00546823     1.49400
Zn3001     Zn  0.80205302  0.74223101  0.05099807     1.52700
Zn3002     Zn  0.76186151  0.75182530  0.50179177     1.49500
O3003       O  0.78115705  0.76697361  0.02742793    -1.84700
O3004       O  0.76983684  0.82825711  0.04963459    -0.75400
O3005       O  0.84644052  0.78389091  0.01410369    -0.75200
O3006       O  0.79427456  0.74722741  0.09252330    -0.74700
O3007       O  0.80098909  0.83163229  0.01551786    -0.75400
O3008       O  0.76165746  0.77804365  0.09248034    -0.75000
O3009       O  0.84313901  0.75024104  0.04551831    -0.75600
O3010       O  0.75759780  0.70524599  0.01074359    -0.74900
O3011       O  0.80673474  0.79257649  0.46518610    -0.75700
O3012       O  0.79162922  0.70249340  0.04183815    -0.75100
O3013       O  0.77308166  0.76001702  0.46172585    -0.75600
O3014       O  0.71745551  0.75822264  0.00523725    -0.75500
O3015       O  0.71871845  0.78744104  0.04070672    -0.75300
C3016       C  0.78625556  0.84267777  0.03431173     0.76500
C3017       C  0.85759957  0.76745283  0.03093776     0.77000
C3018       C  0.77718955  0.76194897  0.10559231     0.76000
C3019       C  0.77281470  0.69117969  0.02656690     0.76400
C3020       C  0.79042587  0.77718730  0.45054459     0.77500
C3021       C  0.70564902  0.77530267  0.02101375     0.76500
Zn3022     Zn  0.54733133  0.79701386  0.30095128     1.49700
Zn3023     Zn  0.49535901  0.79460383  0.25885406     1.49400
Zn3024     Zn  0.53901004  0.74760167  0.25656549     1.49100
Zn3025     Zn  0.49865852  0.75163814  0.30991947     1.49500
O3026       O  0.52006389  0.77269053  0.28159389    -1.84700
O3027       O  0.54374482  0.83623026  0.28876303    -0.75400
O3028       O  0.49850670  0.78654819  0.21753653    -0.75200
O3029       O  0.58040888  0.75355898  0.26037003    -0.74700
O3030       O  0.50579778  0.83497287  0.26255890    -0.75400
O3031       O  0.58692700  0.78643146  0.29222537    -0.75000
O3032       O  0.52989001  0.75450441  0.21581175    -0.75600
O3033       O  0.50274311  0.71069381  0.30414627    -0.74900
O3034       O  0.95619586  0.78787607  0.26846572    -0.75700
O3035       O  0.52895925  0.70773460  0.26606797    -0.75100
O3036       O  0.95920947  0.75920398  0.30437181    -0.75600
O3037       O  0.50942057  0.76303044  0.34960400    -0.75500
O3038       O  0.54099202  0.79687208  0.34261730    -0.75300
C3039       C  0.52609579  0.84823435  0.27390224     0.76500
C3040       C  0.51343769  0.77042377  0.20356390     0.77000
C3041       C  0.59646170  0.76933976  0.27479303     0.76000
C3042       C  0.51461424  0.69636709  0.28561430     0.76400
C3043       C  0.94497556  0.77355887  0.28799397     0.77500
C3044       C  0.52559559  0.78228313  0.35894381     0.76500
C3045       C  0.61754151  0.51109283  0.25578747    -0.06700
C3046       C  0.62695958  0.53195012  0.27405236    -0.17900
C3047       C  0.65557114  0.53845567  0.27737524     0.10500
C3048       C  0.67561126  0.52411266  0.26165550    -0.06600
C3049       C  0.66570517  0.50442818  0.24223309    -0.17900
C3050       C  0.63734009  0.49797490  0.23894808     0.10500
S3051       S  0.66475256  0.56443593  0.30279527    -0.32900
S3052       S  0.62650036  0.97384234  0.21136626    -0.32900
H3053       H  0.59872557  0.98047547  0.20792691     0.28500
H3054       H  0.68154797  0.54692179  0.31804264     0.28500
H3055       H  0.61199647  0.54229239  0.28690098     0.19100
H3056       H  0.68023491  0.49363911  0.22929577     0.19100
C3057       C  0.54021432  0.93560006  0.26094094    -0.06700
C3058       C  0.53170282  0.91800424  0.23885374    -0.17900
C3059       C  0.52658784  0.88973006  0.24262922     0.10500
C3060       C  0.52979608  0.87818283  0.26920810    -0.06600
C3061       C  0.53851175  0.89518387  0.29131939    -0.17900
C3062       C  0.54386494  0.92353452  0.28761149     0.10500
S3063       S  0.51824288  0.86827819  0.21269767    -0.32900
S3064       S  0.55645857  0.94350940  0.31715456    -0.32900
H3065       H  0.55176109  0.92315416  0.33758717     0.28500
H3066       H  0.51901606  0.88911246  0.19242251     0.28500
H3067       H  0.52996291  0.92554009  0.21803528     0.19100
H3068       H  0.54148026  0.88603438  0.31156605     0.19100
C3069       C  0.54480373  0.52054066  0.19861950    -0.06700
C3070       C  0.56809260  0.52486761  0.18139357    -0.17900
C3071       C  0.56506101  0.52707959  0.15263802     0.10500
C3072       C  0.53810852  0.52534493  0.14110757    -0.06600
C3073       C  0.51481577  0.52463752  0.15875916    -0.17900
C3074       C  0.51783801  0.52199408  0.18743794     0.10500
S3075       S  0.59628942  0.53115436  0.13185530    -0.32900
S3076       S  0.98315847  0.01735984  0.20585448    -0.32900
H3077       H  0.49724237  0.02073489  0.23066082     0.28500
H3078       H  0.58445217  0.54746243  0.11124229     0.28500
H3079       H  0.58878678  0.52439302  0.19009600     0.19100
H3080       H  0.49407321  0.52428211  0.15003734     0.19100
C3081       C  0.76285695  0.60360388  0.01813358    -0.06700
C3082       C  0.73967984  0.61904371  0.02450822    -0.17900
C3083       C  0.74241135  0.64750142  0.02880092     0.10500
C3084       C  0.76896735  0.66089020  0.02673497    -0.06600
C3085       C  0.79238438  0.64502783  0.02278441    -0.17900
C3086       C  0.78962205  0.61661921  0.01827999     0.10500
S3087       S  0.71120526  0.66558738  0.03619099    -0.32900
S3088       S  0.82525277  0.60303018  0.51139009    -0.32900
H3089       H  0.81396059  0.57668840  0.51744832     0.28500
H3090       H  0.72423132  0.68616060  0.05272882     0.28500
H3091       H  0.71913817  0.60917872  0.02459794     0.19100
H3092       H  0.81287597  0.65505140  0.02162420     0.19100
C3093       C  0.76269392  0.54535638  0.43379175    -0.06700
C3094       C  0.74127525  0.53611255  0.41568090    -0.17900
C3095       C  0.74574836  0.53320268  0.38719757     0.10500
C3096       C  0.77215259  0.53977538  0.37589782    -0.06600
C3097       C  0.79398981  0.54793598  0.39347192    -0.17900
C3098       C  0.78969488  0.55086674  0.42220565     0.10500
S3099       S  0.71438407  0.02268780  0.36806818    -0.32900
S3100       S  0.81906394  0.56191734  0.44344754    -0.32900
H3101       H  0.83905923  0.56424073  0.42203313     0.28500
H3102       H  0.72976272  0.00771178  0.34867317     0.28500
H3103       H  0.72077409  0.53033063  0.42303635     0.19100
H3104       H  0.81428554  0.55266765  0.38445244     0.19100
C3105       C  0.63337549  0.53721768  0.02823422    -0.06700
C3106       C  0.65055648  0.51542333  0.03498881    -0.17900
C3107       C  0.67925037  0.51695085  0.02937905     0.10500
C3108       C  0.69146810  0.54108881  0.01761720    -0.06600
C3109       C  0.67942740  0.56700179  0.51509442    -0.17900
C3110       C  0.65062965  0.56514387  0.52003622     0.10500
S3111       S  0.69880464  0.48688021  0.03604262    -0.32900
S3112       S  0.63132451  0.59618224  0.51852154    -0.32900
H3113       H  0.65379797  0.61454690  0.51225753     0.28500
H3114       H  0.71493536  0.48893657  0.01163687     0.28500
H3115       H  0.64139483  0.49639013  0.04317668     0.19100
H3116       H  0.68895261  0.58629274  0.50829336     0.19100
C3117       C  0.51236490  0.77046128  0.17248060    -0.06700
C3118       C  0.53666072  0.76460304  0.15758866    -0.17900
C3119       C  0.53692080  0.76309041  0.12845206     0.10500
C3120       C  0.51224764  0.76693415  0.11332594    -0.06600
C3121       C  0.98779334  0.77381769  0.12593394    -0.17900
C3122       C  0.98767689  0.77550629  0.15513137     0.10500
S3123       S  0.56928399  0.75536216  0.11161747    -0.32900
S3124       S  0.95492352  0.78196979  0.17180770    -0.32900
H3125       H  0.95731920  0.76128071  0.19200077     0.28500
H3126       H  0.56318673  0.76836192  0.08639949     0.28500
H3127       H  0.55567926  0.76095882  0.16874137     0.19100
H3128       H  0.96870147  0.77689754  0.11493015     0.19100
C3129       C  0.94612322  0.76468790  0.03999439    -0.06700
C3130       C  0.92899792  0.76679961  0.06346530    -0.17900
C3131       C  0.90031826  0.76927102  0.06099145     0.10500
C3132       C  0.88807546  0.76877043  0.03432079    -0.06600
C3133       C  0.90528288  0.76809966  0.01066335    -0.17900
C3134       C  0.93413370  0.76598703  0.01323403     0.10500
S3135       S  0.88043937  0.77237316  0.09273407    -0.32900
S3136       S  0.95434924  0.76308310  0.98174089    -0.32900
H3137       H  0.97917850  0.77388843  0.99325672     0.28500
H3138       H  0.86047334  0.78946689  0.08144502     0.28500
H3139       H  0.93766931  0.76469579  0.08397756     0.19100
H3140       H  0.89609784  0.76796559  0.99010380     0.19100
C3141       C  0.51903039  0.62990361  0.04245191    -0.06700
C3142       C  0.99758964  0.63903301  0.05834001    -0.17900
C3143       C  0.99358392  0.66720849  0.06114381     0.10500
C3144       C  0.51230393  0.68760232  0.04709475    -0.06600
C3145       C  0.53308700  0.67679724  0.02990836    -0.17900
C3146       C  0.53700954  0.64862873  0.02793137     0.10500
S3147       S  0.96811387  0.67821377  0.08636622    -0.32900
S3148       S  0.56635759  0.63850771  0.00741737    -0.32900
H3149       H  0.57695908  0.62273940  0.02916435     0.28500
H3150       H  0.95662597  0.65203639  0.09316830     0.28500
H3151       H  0.98658163  0.62496010  0.07233452     0.19100
H3152       H  0.54728891  0.68976918  0.01807755     0.19100
C3153       C  0.78915709  0.53091301  0.16339076    -0.06700
C3154       C  0.76334180  0.01863950  0.15146142    -0.17900
C3155       C  0.76315981  0.01292161  0.12297053     0.10500
C3156       C  0.78842192  0.51852322  0.10593028    -0.06600
C3157       C  0.81144638  0.53265760  0.11770108    -0.17900
C3158       C  0.81232839  0.53849528  0.14631083     0.10500
S3159       S  0.73079221  0.00083172  0.10763654    -0.32900
S3160       S  0.84449994  0.55310076  0.15980697    -0.32900
H3161       H  0.84635831  0.53348089  0.18113525     0.28500
H3162       H  0.73730657  0.01052196  0.08071206     0.28500
H3163       H  0.74440073  0.01480510  0.16338781     0.19100
H3164       H  0.82969336  0.53723636  0.10507423     0.19100
C3165       C  0.78907235  0.93123887  0.04458099    -0.06700
C3166       C  0.78314442  0.91359158  0.06731268    -0.17900
C3167       C  0.78302601  0.88501935  0.06471897     0.10500
C3168       C  0.78782560  0.87290411  0.03846603    -0.06600
C3169       C  0.79344580  0.89008144  0.01557407    -0.17900
C3170       C  0.79440354  0.91887343  0.01823862     0.10500
S3171       S  0.77870239  0.86542421  0.09647243    -0.32900
S3172       S  0.81320783  0.94383696  0.48972924    -0.32900
H3173       H  0.80100716  0.91787015  0.96802983     0.28500
H3174       H  0.79963130  0.84700370  0.08998855     0.28500
H3175       H  0.78013014  0.92137329  0.08800141     0.19100
H3176       H  0.79731038  0.88083617  0.99547564     0.19100
C3177       C  0.91732617  0.51430157  0.04194725    -0.06700
C3178       C  0.90196341  0.51384468  0.01714225    -0.17900
C3179       C  0.87281632  0.51259604  0.01753667     0.10500
C3180       C  0.85838972  0.51167893  0.04320113    -0.06600
C3181       C  0.87485536  0.00871468  0.07023861    -0.17900
C3182       C  0.90398928  0.01059568  0.06934474     0.10500
S3183       S  0.85505848  0.51040154  0.98466212    -0.32900
S3184       S  0.92209501  0.00767805  0.10192257    -0.32900
H3185       H  0.94355503  0.99189250  0.09115192     0.28500
H3186       H  0.83069609  0.52227757  0.99436606     0.28500
H3187       H  0.91273398  0.51435174  0.99726126     0.19100
H3188       H  0.86453751  0.00499139  0.09003759     0.19100
C3189       C  0.76282130  0.69724740  0.25877175    -0.06700
C3190       C  0.78607424  0.69024622  0.27448330    -0.17900
C3191       C  0.79352362  0.66263356  0.27710435     0.10500
C3192       C  0.77755983  0.64169658  0.26340533    -0.06600
C3193       C  0.75525139  0.64890088  0.24680604    -0.17900
C3194       C  0.74803894  0.67619682  0.24386338     0.10500
S3195       S  0.82277431  0.65550446  0.29890017    -0.32900
S3196       S  0.71982586  0.68242137  0.22036712    -0.32900
H3197       H  0.73065755  0.70790551  0.21088372     0.28500
H3198       H  0.81444873  0.62837946  0.30588882     0.28500
H3199       H  0.79769297  0.70617202  0.28577440     0.19100
H3200       H  0.74322545  0.63295166  0.23592129     0.19100
C3201       C  0.68524407  0.76301898  0.26279219    -0.06700
C3202       C  0.66683875  0.76369845  0.23999408    -0.17900
C3203       C  0.63833935  0.76675590  0.24344981     0.10500
C3204       C  0.62685145  0.76809806  0.27042825    -0.06600
C3205       C  0.64453079  0.76657285  0.29342397    -0.17900
C3206       C  0.67332160  0.76325687  0.29002185     0.10500
S3207       S  0.61783836  0.76930962  0.21222590    -0.32900
S3208       S  0.69397783  0.75787859  0.32076721    -0.32900
H3209       H  0.67182724  0.75511924  0.33991346     0.28500
H3210       H  0.60009611  0.78909786  0.22295340     0.28500
H3211       H  0.67388430  0.76105499  0.21891719     0.19100
H3212       H  0.63553264  0.76701693  0.31412200     0.19100
C3213       C  0.76735758  0.76285095  0.19523710    -0.06700
C3214       C  0.77670664  0.73905155  0.18217192    -0.17900
C3215       C  0.78045148  0.73793422  0.15308787     0.10500
C3216       C  0.77545334  0.76141534  0.13661769    -0.06600
C3217       C  0.76801912  0.78567361  0.15018432    -0.17900
C3218       C  0.76417979  0.78667867  0.17900278     0.10500
S3219       S  0.78905413  0.70529111  0.13827372    -0.32900
S3220       S  0.75466923  0.81897095  0.19394350    -0.32900
H3221       H  0.76837392  0.81439194  0.21907951     0.28500
H3222       H  0.76940141  0.70628266  0.11674762     0.28500
H3223       H  0.77897964  0.72056136  0.19436066     0.19100
H3224       H  0.76491679  0.80414023  0.13818867     0.19100
C3225       C  0.62036903  0.79678294  0.00869104    -0.06700
C3226       C  0.64134564  0.79432837  0.48491089    -0.17900
C3227       C  0.66508151  0.78311061  0.98908574     0.10500
C3228       C  0.67640038  0.78210792  0.01608523    -0.06600
C3229       C  0.66026202  0.79016421  0.03882616    -0.17900
C3230       C  0.63277135  0.79794772  0.03551417     0.10500
S3231       S  0.69056346  0.78314484  0.45734820    -0.32900
S3232       S  0.61408081  0.80925019  0.06603484    -0.32900
H3233       H  0.63623879  0.80883633  0.08497529     0.28500
H3234       H  0.66986991  0.78699227  0.43732283     0.28500
H3235       H  0.63359224  0.79528414  0.46405337     0.19100
H3236       H  0.66930507  0.79027372  0.05941342     0.19100
C3237       C  0.53746487  0.79612557  0.44695894    -0.06700
C3238       C  0.53367737  0.81849810  0.42920380    -0.17900
C3239       C  0.52833864  0.81453950  0.40063464     0.10500
C3240       C  0.52710256  0.78757227  0.38942459    -0.06600
C3241       C  0.52893593  0.76520030  0.40756485    -0.17900
C3242       C  0.53414713  0.76921744  0.43597820     0.10500
S3243       S  0.52341903  0.84406051  0.37868116    -0.32900
S3244       S  0.03843704  0.73901860  0.45401200    -0.32900
H3245       H  0.52184881  0.74993467  0.47855861     0.28500
H3246       H  0.52330089  0.86378400  0.40014153     0.28500
H3247       H  0.53675432  0.83912405  0.43733079     0.19100
H3248       H  0.52761583  0.74442919  0.39935048     0.19100
C3249       C  0.53326470  0.91888620  0.02317240    -0.06700
C3250       C  0.54188702  0.90311336  0.04580846    -0.17900
C3251       C  0.54591272  0.87484596  0.04309182     0.10500
C3252       C  0.54166696  0.86178578  0.01706750    -0.06600
C3253       C  0.53163507  0.87770756  0.49562230    -0.17900
C3254       C  0.52701518  0.90589157  0.49811436     0.10500
S3255       S  0.05454375  0.85287800  0.07389938    -0.32900
S3256       S  0.51410288  0.92276611  0.46770525    -0.32900
H3257       H  0.53437191  0.94441394  0.46848631     0.28500
H3258       H  0.54548173  0.83071750  0.06541224     0.28500
H3259       H  0.54568918  0.91290344  0.06578802     0.19100
H3260       H  0.52723883  0.86743627  0.47604398     0.19100
C3261       C  0.51136737  0.60796876  0.29386349    -0.06700
C3262       C  0.48799013  0.62298300  0.30070552    -0.17900
C3263       C  0.48793293  0.65160507  0.29702856     0.10500
C3264       C  0.51226329  0.66582396  0.28715754    -0.06600
C3265       C  0.53530419  0.65056634  0.27939340    -0.17900
C3266       C  0.53502057  0.62191763  0.28256451     0.10500
S3267       S  0.45650535  0.66946468  0.30458435    -0.32900
S3268       S  0.56598318  0.60432740  0.27363719    -0.32900
H3269       H  0.55099150  0.58231237  0.26124548     0.28500
H3270       H  0.43949880  0.64607696  0.31083978     0.28500
H3271       H  0.47006128  0.61228220  0.30991506     0.19100
H3272       H  0.55402174  0.66110366  0.27161237     0.19100
C3273       C  0.95189101  0.54067427  0.28988220    -0.06700
C3274       C  0.94046066  0.56377233  0.27754437    -0.17900
C3275       C  0.91173102  0.56480254  0.27253785     0.10500
C3276       C  0.89391798  0.54169015  0.27879171    -0.06600
C3277       C  0.90588779  0.51791986  0.28922098    -0.17900
C3278       C  0.93437212  0.51711506  0.29463522     0.10500
S3279       S  0.89900220  0.59707379  0.26078301    -0.32900
S3280       S  0.94713004  0.48524910  0.30748714    -0.32900
H3281       H  0.97318722  0.48897158  0.29459297     0.28500
H3282       H  0.87672658  0.59706087  0.27989942     0.28500
H3283       H  0.95361908  0.58190671  0.27361469     0.19100
H3284       H  0.89287364  0.49969179  0.29343777     0.19100
C3285       C  0.51868114  0.53094402  0.42858945    -0.06700
C3286       C  0.49526206  0.54340619  0.41817098    -0.17900
C3287       C  0.49257986  0.54854631  0.38965888     0.10500
C3288       C  0.51317800  0.53937624  0.37078525    -0.06600
C3289       C  0.53714021  0.52773008  0.38198358    -0.17900
C3290       C  0.53990779  0.52322121  0.41042297     0.10500
S3291       S  0.46377461  0.56860829  0.37839491    -0.32900
S3292       S  0.57052219  0.00618999  0.42072042    -0.32900
H3293       H  0.55781220  0.99352105  0.44407047     0.28500
H3294       H  0.44989090  0.56985452  0.40418493     0.28500
H3295       H  0.47968838  0.55027573  0.43269330     0.19100
H3296       H  0.55466962  0.52282399  0.36913059     0.19100
C3297       C  0.79693120  0.87187877  0.29279746    -0.06700
C3298       C  0.82021414  0.88989631  0.28773611    -0.17900
C3299       C  0.81755850  0.91787632  0.28219292     0.10500
C3300       C  0.79104634  0.92911353  0.28185093    -0.06600
C3301       C  0.76765240  0.91175594  0.28696887    -0.17900
C3302       C  0.77021115  0.88359344  0.29298431     0.10500
S3303       S  0.84911981  0.93817633  0.27542661    -0.32900
S3304       S  0.73902448  0.86333494  0.30176767    -0.32900
H3305       H  0.72028545  0.88476866  0.30096130     0.28500
H3306       H  0.83737333  0.95587173  0.25600518     0.28500
H3307       H  0.84110997  0.88300453  0.28831852     0.19100
H3308       H  0.74736372  0.92060177  0.28722395     0.19100
C3309       C  0.85931570  0.78986121  0.30092596    -0.06700
C3310       C  0.86713784  0.77542861  0.27698845    -0.17900
C3311       C  0.89481222  0.76838982  0.27265993     0.10500
C3312       C  0.91493222  0.77532838  0.29302594    -0.06600
C3313       C  0.90671004  0.78784977  0.31779937    -0.17900
C3314       C  0.87945385  0.79594505  0.32174420     0.10500
S3315       S  0.90338344  0.75161229  0.24039904    -0.32900
S3316       S  0.87324233  0.81562291  0.35301642    -0.32900
H3317       H  0.84613386  0.82336816  0.34802063     0.28500
H3318       H  0.92681234  0.73846201  0.25043600     0.28500
H3319       H  0.85194134  0.77106475  0.26083174     0.19100
H3320       H  0.92221759  0.79333590  0.33336027     0.19100
C3321       C  0.78999814  0.79336448  0.36232810    -0.06700
C3322       C  0.81198516  0.77917195  0.37402843    -0.17900
C3323       C  0.81262639  0.77310179  0.40260430     0.10500
C3324       C  0.79030552  0.78052141  0.41990953    -0.06600
C3325       C  0.76737423  0.79278880  0.40786564    -0.17900
C3326       C  0.76694170  0.79924376  0.37942939     0.10500
S3327       S  0.84282579  0.75664666  0.41572089    -0.32900
S3328       S  0.73624360  0.81475502  0.36628171    -0.32900
H3329       H  0.73883721  0.80470861  0.33897657     0.28500
H3330       H  0.82979214  0.74428819  0.43904203     0.28500
H3331       H  0.82942404  0.77379199  0.36107191     0.19100
H3332       H  0.74990748  0.79806518  0.42090413     0.19100
C3333       C  0.79685507  0.83903856  0.80022738     0.85900
C3334       C  0.82630612  0.82803297  0.79628381    -0.54400
C3335       C  0.82817750  0.80062929  0.80107856     0.08800
C3336       C  0.80032423  0.78577339  0.80837756     0.19800
C3337       C  0.77908956  0.82093078  0.78040377    -0.55100
C3338       C  0.78053266  0.79319960  0.78464757     0.08900
C3339       C  0.78801073  0.82929343  0.82959385    -0.54600
C3340       C  0.78969799  0.80153896  0.83396197     0.09500
H3341       H  0.84469749  0.83997286  0.79006074     0.14000
H3342       H  0.80180818  0.76331368  0.81186445    -0.00300
H3343       H  0.76521642  0.82944748  0.76527818     0.14300
H3344       H  0.78204413  0.84340081  0.84591500     0.14100
C3345       C  0.50901938  0.54522690  0.84089950     0.85900
C3346       C  0.98131784  0.53771051  0.83026225    -0.54400
C3347       C  0.97644344  0.54241473  0.80270777     0.08800
C3348       C  0.00248003  0.55390656  0.78691494     0.19800
C3349       C  0.52807243  0.52905016  0.82165263    -0.55100
C3350       C  0.52456323  0.53369014  0.79398275     0.08900
C3351       C  0.51458186  0.57522684  0.83245017    -0.54600
C3352       C  0.51054421  0.58037726  0.80494882     0.09500
H3353       H  0.96506983  0.53016168  0.84438931     0.14000
H3354       H  0.99885922  0.55771159  0.76448286    -0.00300
H3355       H  0.54157088  0.51309317  0.82822910     0.14300
H3356       H  0.51990458  0.59144543  0.84730443     0.14100
C3357       C  0.59269095  0.80371656  0.50441899     0.85900
C3358       C  0.58394782  0.83280053  0.51159430    -0.54400
C3359       C  0.55595321  0.83630160  0.51058265     0.08800
C3360       C  0.53539767  0.80842767  0.00209089     0.19800
C3361       C  0.57528422  0.78469937  0.52360511    -0.55100
C3362       C  0.54727291  0.78808996  0.52277995     0.08900
C3363       C  0.57651654  0.79569865  0.97592288    -0.54600
C3364       C  0.54867637  0.79937582  0.97418262     0.09500
H3365       H  0.59874415  0.84933760  0.51710945     0.14000
H3366       H  0.51271617  0.81151575  0.00088342    -0.00300
H3367       H  0.58442847  0.76880830  0.53606525     0.14300
H3368       H  0.58763391  0.78868318  0.95781536     0.14100
C3369       C  0.71380107  0.75902416  0.75549416     0.85900
C3370       C  0.72240042  0.72955700  0.76096272    -0.54400
C3371       C  0.75001245  0.72528190  0.75709688     0.08800
C3372       C  0.76730684  0.75162953  0.74917528     0.19800
C3373       C  0.73240390  0.77735449  0.77415323    -0.55100
C3374       C  0.76023688  0.77354757  0.77132814     0.08900
C3375       C  0.72530436  0.76557463  0.72596700    -0.54600
C3376       C  0.75310871  0.76177542  0.72263933     0.09500
H3377       H  0.70744688  0.71295142  0.76594996     0.14000
H3378       H  0.78989785  0.74851484  0.74642533    -0.00300
H3379       H  0.72423781  0.79318445  0.78752752     0.14300
H3380       H  0.71335357  0.77266451  0.70862158     0.14100
C3381       C  0.79778484  0.96778821  0.54946962     0.85900
C3382       C  0.79057906  0.97991566  0.57825147    -0.54400
C3383       C  0.79352805  0.50684942  0.57848115     0.08800
C3384       C  0.80626438  0.52057415  0.55235615     0.19800
C3385       C  0.78131831  0.98488869  0.52906734    -0.55100
C3386       C  0.78519091  0.51266339  0.52928021     0.08900
C3387       C  0.82821478  0.97699931  0.54505913    -0.54600
C3388       C  0.83222477  0.50385112  0.54568579     0.09500
H3389       H  0.78303284  0.96838566  0.59612380     0.14000
H3390       H  0.81072624  0.54301520  0.55463228    -0.00300
H3391       H  0.76705349  0.97571319  0.51391797     0.14300
H3392       H  0.84454743  0.96267680  0.54103076     0.14100
C3393       C  0.51230020  0.72045603  0.54800807     0.85900
C3394       C  0.98344994  0.72933019  0.54078742    -0.54400
C3395       C  0.97883153  0.75642394  0.54515594     0.08800
C3396       C  0.00437386  0.77325200  0.55629211     0.19800
C3397       C  0.53252047  0.74008653  0.53221311    -0.55100
C3398       C  0.52818779  0.76735948  0.53627035     0.08900
C3399       C  0.51557703  0.72949640  0.57840276    -0.54600
C3400       C  0.51147041  0.75665899  0.58329961     0.09500
H3401       H  0.96736010  0.71500088  0.53312255     0.14000
H3402       H  0.00083199  0.79543756  0.55959931    -0.00300
H3403       H  0.54908798  0.73392892  0.51862104     0.14300
H3404       H  0.52080509  0.71537201  0.59489896     0.14100
C3405       C  0.75251451  0.54464513  0.96596675     0.85900
C3406       C  0.76043037  0.57345166  0.97699206    -0.54400
C3407       C  0.76227440  0.58092097  0.50382960     0.08800
C3408       C  0.75153013  0.55459708  0.51912659     0.19800
C3409       C  0.76971748  0.52486570  0.98290992    -0.55100
C3410       C  0.77198916  0.53226454  0.51035490     0.08900
C3411       C  0.72257299  0.53929816  0.97697419    -0.54600
C3412       C  0.72415198  0.54616407  0.50399213     0.09500
H3413       H  0.76693369  0.59047162  0.96352672     0.14000
H3414       H  0.74908375  0.55713684  0.54197717    -0.00300
H3415       H  0.78250505  0.50949229  0.97335448     0.14300
H3416       H  0.70437076  0.53470085  0.96450266     0.14100
C3417       C  0.54544382  0.96575358  0.75545411     0.85900
C3418       C  0.57667410  0.97241265  0.75911923    -0.54400
C3419       C  0.58262298  0.50082079  0.75786677     0.08800
C3420       C  0.55818829  0.51960656  0.75139697     0.19800
C3421       C  0.53079190  0.98508344  0.77537667    -0.55100
C3422       C  0.53584942  0.51357953  0.77407950     0.08900
C3423       C  0.53916921  0.97748668  0.72643329    -0.54600
C3424       C  0.54513191  0.50663840  0.72523902     0.09500
H3425       H  0.59157344  0.95674480  0.76326879     0.14000
H3426       H  0.56447081  0.54168863  0.74904484    -0.00300
H3427       H  0.51612536  0.97769036  0.79115347     0.14300
H3428       H  0.53048976  0.96619074  0.70894868     0.14100
Zn3429     Zn  0.54931405  0.55219896  0.51013787     1.49700
Zn3430     Zn  0.50608447  0.54634675  0.56023900     1.49400
Zn3431     Zn  0.50324077  0.50235146  0.51242315     1.49100
Zn3432     Zn  0.55600807  0.50412804  0.55366347     1.49500
O3433       O  0.52882230  0.52603903  0.53415788    -1.84700
O3434       O  0.53915655  0.59102553  0.51826816    -0.75400
O3435       O  0.96476176  0.53652360  0.55584528    -0.75200
O3436       O  0.50231618  0.51153722  0.97327745    -0.74700
O3437       O  0.51097878  0.58660552  0.55459876    -0.75400
O3438       O  0.53574298  0.54459107  0.97268245    -0.75000
O3439       O  0.96328690  0.50707309  0.52059950    -0.75600
O3440       O  0.54909526  0.96319750  0.54287081    -0.74900
O3441       O  0.51769151  0.53950502  0.59900262    -0.75700
O3442       O  0.51365337  0.96283684  0.51340791    -0.75100
O3443       O  0.55214452  0.51043989  0.59525744    -0.75600
O3444       O  0.59611717  0.51601992  0.54371406    -0.75500
O3445       O  0.59094211  0.55051617  0.51444385    -0.75300
C3446       C  0.52430813  0.60162256  0.53709354     0.76500
C3447       C  0.95103997  0.52090282  0.53922674     0.77000
C3448       C  0.51790354  0.52903364  0.96037212     0.76000
C3449       C  0.53216666  0.95027613  0.52662857     0.76400
C3450       C  0.53644826  0.52541368  0.60986693     0.77500
C3451       C  0.60656360  0.53519132  0.52835665     0.76500
Zn3452     Zn  0.80610985  0.55885368  0.74790963     1.49700
Zn3453     Zn  0.76177052  0.00614926  0.74946212     1.49400
Zn3454     Zn  0.80295259  0.51592432  0.79760741     1.49100
Zn3455     Zn  0.75297290  0.55767722  0.78892461     1.49500
O3456       O  0.78047499  0.53490568  0.77040309    -1.84700
O3457       O  0.80082738  0.54904930  0.70739600    -0.75400
O3458       O  0.77063319  0.96676058  0.76127980    -0.75200
O3459       O  0.84393642  0.52541090  0.79328779    -0.74700
O3460       O  0.77008788  0.51354835  0.70744308    -0.75400
O3461       O  0.84723669  0.55441389  0.75781972    -0.75000
O3462       O  0.80088029  0.97446698  0.79539774    -0.75600
O3463       O  0.75568626  0.55268826  0.83020699    -0.74900
O3464       O  0.71790942  0.51041404  0.75195642    -0.75700
O3465       O  0.79114821  0.52529680  0.83641508    -0.75100
O3466       O  0.71281358  0.54689604  0.77863086    -0.75600
O3467       O  0.75991874  0.59803566  0.77994283    -0.75500
O3468       O  0.79712326  0.59930667  0.75212649    -0.75300
C3469       C  0.78621492  0.53073777  0.69449956     0.76500
C3470       C  0.78670403  0.95790703  0.78003120     0.77000
C3471       C  0.85866757  0.54046962  0.77677672     0.76000
C3472       C  0.77150915  0.53936994  0.84597396     0.76400
C3473       C  0.70216103  0.52706262  0.76441905     0.77500
C3474       C  0.77794633  0.61136434  0.76522054     0.76500
Zn3475     Zn  0.76249383  0.79402940  0.55231209     1.49700
Zn3476     Zn  0.81192853  0.79694570  0.50716901     1.49400
Zn3477     Zn  0.80582837  0.74708153  0.55178663     1.52700
Zn3478     Zn  0.75675914  0.74596358  0.00188336     1.49500
O3479       O  0.78578442  0.77237462  0.52805198    -1.84700
O3480       O  0.77385152  0.83346109  0.55023757    -0.75400
O3481       O  0.85159836  0.78890116  0.51707058    -0.75200
O3482       O  0.79698456  0.75191948  0.59297756    -0.74700
O3483       O  0.80649110  0.83696254  0.51763504    -0.75400
O3484       O  0.76476156  0.78314180  0.59256402    -0.75000
O3485       O  0.84703887  0.75465332  0.54765635    -0.75600
O3486       O  0.76270237  0.71081624  0.50972324    -0.74900
O3487       O  0.80017566  0.78643417  0.96389053    -0.75700
O3488       O  0.79564762  0.70736882  0.54184010    -0.75100
O3489       O  0.76696444  0.75338011  0.96121401    -0.75600
O3490       O  0.72235001  0.76411076  0.50430555    -0.75500
O3491       O  0.72296319  0.79296701  0.54005229    -0.75300
C3492       C  0.79092287  0.84796116  0.53575581     0.76500
C3493       C  0.86211556  0.77197839  0.53386158     0.77000
C3494       C  0.77980424  0.76670907  0.60581189     0.76000
C3495       C  0.77740822  0.69635615  0.52569326     0.76400
C3496       C  0.78393495  0.77066279  0.94962184     0.77500
C3497       C  0.71021713  0.78100724  0.52004912     0.76500
Zn3498     Zn  0.54503740  0.79679832  0.80040018     1.49700
Zn3499     Zn  0.49316312  0.79444987  0.75754825     1.49400
Zn3500     Zn  0.53671955  0.74776577  0.75569046     1.49100
Zn3501     Zn  0.49588350  0.75226845  0.80892206     1.49500
O3502       O  0.51770861  0.77283381  0.78071937    -1.84700
O3503       O  0.54130687  0.83592310  0.78811965    -0.75400
O3504       O  0.49801096  0.78761557  0.71609234    -0.75200
O3505       O  0.57803087  0.75342253  0.75946338    -0.74700
O3506       O  0.50276588  0.83466665  0.76277716    -0.75400
O3507       O  0.58459826  0.78613873  0.79149925    -0.75000
O3508       O  0.52845923  0.75473296  0.71489422    -0.75600
O3509       O  0.50051217  0.71153540  0.80332886    -0.74900
O3510       O  0.95242159  0.78558106  0.76760079    -0.75700
O3511       O  0.52636442  0.70812395  0.76505912    -0.75100
O3512       O  0.95527408  0.75799384  0.80439044    -0.75600
O3513       O  0.50627459  0.76354899  0.84882384    -0.75500
O3514       O  0.53885519  0.79651453  0.84228783    -0.75300
C3515       C  0.52322600  0.84795077  0.77379150     0.76500
C3516       C  0.51288941  0.77125593  0.70235564     0.77000
C3517       C  0.59406107  0.76909982  0.77397181     0.76000
C3518       C  0.51216725  0.69700607  0.78482936     0.76400
C3519       C  0.94108607  0.77158141  0.78729944     0.77500
C3520       C  0.52299316  0.78219961  0.85845248     0.76500
C3521       C  0.61275076  0.50978653  0.75712806    -0.06700
C3522       C  0.62253723  0.53077476  0.77504846    -0.17900
C3523       C  0.65122408  0.53712860  0.77802413     0.10500
C3524       C  0.67105417  0.52264556  0.76214625    -0.06600
C3525       C  0.66081984  0.50256863  0.74327855    -0.17900
C3526       C  0.63234517  0.49615807  0.74044300     0.10500
S3527       S  0.66076549  0.56302726  0.80339448    -0.32900
S3528       S  0.62528455  0.97243958  0.71044120    -0.32900
H3529       H  0.59775952  0.97987210  0.70675378     0.28500
H3530       H  0.67813415  0.54557359  0.81798317     0.28500
H3531       H  0.60778084  0.54141309  0.78788219     0.19100
H3532       H  0.67516987  0.49150363  0.73038634     0.19100
C3533       C  0.53774297  0.93521748  0.76092547    -0.06700
C3534       C  0.52493410  0.91852979  0.74019211    -0.17900
C3535       C  0.51977081  0.89027621  0.74386283     0.10500
C3536       C  0.52661494  0.87797795  0.76934580    -0.06600
C3537       C  0.53835184  0.89440992  0.79056480    -0.17900
C3538       C  0.54382747  0.92271476  0.78685000     0.10500
S3539       S  0.50607662  0.87007432  0.71492097    -0.32900
S3540       S  0.55893963  0.94226459  0.81555109    -0.32900
H3541       H  0.55763004  0.92114191  0.83552073     0.28500
H3542       H  0.50784685  0.89080183  0.69454692     0.28500
H3543       H  0.51886249  0.92691727  0.72066663     0.19100
H3544       H  0.54345601  0.88488003  0.81013598     0.19100
C3545       C  0.54254963  0.52038022  0.69824920    -0.06700
C3546       C  0.56683441  0.52505524  0.68247489    -0.17900
C3547       C  0.56556090  0.52794272  0.65356000     0.10500
C3548       C  0.53940290  0.52629057  0.64030330    -0.06600
C3549       C  0.51508562  0.52472420  0.65655116    -0.17900
C3550       C  0.51637800  0.52170273  0.68535991     0.10500
S3551       S  0.59792141  0.53301313  0.63481186    -0.32900
S3552       S  0.98286187  0.01465914  0.70338598    -0.32900
H3553       H  0.49556705  0.01937760  0.72971498     0.28500
H3554       H  0.58708895  0.54966080  0.61389701     0.28500
H3555       H  0.58694975  0.52459761  0.69244255     0.19100
H3556       H  0.49490019  0.52429910  0.64661194     0.19100
C3557       C  0.76710970  0.60851597  0.51654059    -0.06700
C3558       C  0.74395184  0.62432147  0.52192129    -0.17900
C3559       C  0.74674549  0.65278514  0.52619433     0.10500
C3560       C  0.77342935  0.66599859  0.52519829    -0.06600
C3561       C  0.79680784  0.64988441  0.52198434    -0.17900
C3562       C  0.79394285  0.62141287  0.51744634     0.10500
S3563       S  0.71540611  0.67110346  0.53225042    -0.32900
S3564       S  0.82092068  0.59855493  0.01107011    -0.32900
H3565       H  0.80990686  0.57191809  0.01614104     0.28500
H3566       H  0.72776447  0.69123054  0.54979096     0.28500
H3567       H  0.72337187  0.61473206  0.52142266     0.19100
H3568       H  0.81740562  0.65973391  0.52157940     0.19100
C3569       C  0.75762911  0.54234455  0.93446059    -0.06700
C3570       C  0.73564626  0.53555173  0.91601580    -0.17900
C3571       C  0.73977823  0.53411854  0.88732550     0.10500
C3572       C  0.76645807  0.53965793  0.87612095    -0.06600
C3573       C  0.78868806  0.54573785  0.89397698    -0.17900
C3574       C  0.78466254  0.54748373  0.92285262     0.10500
S3575       S  0.71412820  0.02014855  0.86815388    -0.32900
S3576       S  0.81441748  0.55686636  0.94423355    -0.32900
H3577       H  0.83348192  0.56276615  0.92256109     0.28500
H3578       H  0.72969326  0.00541637  0.84871458     0.28500
H3579       H  0.71482995  0.53092794  0.92318072     0.19100
H3580       H  0.80918214  0.54972037  0.88510059     0.19100
C3581       C  0.63743467  0.53922913  0.52600736    -0.06700
C3582       C  0.65406810  0.51623066  0.52834360    -0.17900
C3583       C  0.68287435  0.51826743  0.52352783     0.10500
C3584       C  0.69583351  0.54392553  0.51659570    -0.06600
C3585       C  0.67479390  0.56345161  0.01259541    -0.17900
C3586       C  0.64611059  0.56203866  0.01797145     0.10500
S3587       S  0.70155289  0.48698550  0.52415828    -0.32900
S3588       S  0.62653962  0.59234823  0.01161260    -0.32900
H3589       H  0.64844179  0.60915296  0.00076501     0.28500
H3590       H  0.72623040  0.49979789  0.53366942     0.28500
H3591       H  0.64441365  0.49620299  0.53276295     0.19100
H3592       H  0.68419628  0.58171191  0.00308721     0.19100
C3593       C  0.51276426  0.77157417  0.67125484    -0.06700
C3594       C  0.53731216  0.76516024  0.65705703    -0.17900
C3595       C  0.53831274  0.76349591  0.62794637     0.10500
C3596       C  0.51414960  0.76777919  0.61217627    -0.06600
C3597       C  0.99122243  0.77749200  0.62553825    -0.17900
C3598       C  0.98967961  0.77831970  0.65477199     0.10500
S3599       S  0.57096920  0.75526072  0.61197323    -0.32900
S3600       S  0.95623808  0.78473901  0.66999214    -0.32900
H3601       H  0.95721518  0.76319748  0.68944011     0.28500
H3602       H  0.56583656  0.76838213  0.58656688     0.28500
H3603       H  0.55592017  0.76115003  0.66874128     0.19100
H3604       H  0.97276487  0.78106502  0.61366077     0.19100
C3605       C  0.95050910  0.76655537  0.54217608    -0.06700
C3606       C  0.93336107  0.76552941  0.56582740    -0.17900
C3607       C  0.90476849  0.76892348  0.56392844     0.10500
C3608       C  0.89258709  0.77235498  0.53751071    -0.06600
C3609       C  0.90984066  0.77436928  0.51387675    -0.17900
C3610       C  0.93859597  0.77128771  0.51586430     0.10500
S3611       S  0.88505473  0.76836040  0.59600965    -0.32900
S3612       S  0.95830934  0.77138837  0.48378898    -0.32900
H3613       H  0.98464754  0.77516560  0.49564291     0.28500
H3614       H  0.86589718  0.78768426  0.58738630     0.28500
H3615       H  0.94199488  0.76049466  0.58579812     0.19100
H3616       H  0.90069631  0.77698521  0.49352733     0.19100
C3617       C  0.52200049  0.63187178  0.53898311    -0.06700
C3618       C  0.00136256  0.64234777  0.55696312    -0.17900
C3619       C  0.99786037  0.67058688  0.56011085     0.10500
C3620       C  0.51541190  0.68943092  0.54453018    -0.06600
C3621       C  0.53716666  0.67889059  0.52842720    -0.17900
C3622       C  0.54091236  0.65074268  0.52594749     0.10500
S3623       S  0.96991754  0.68157452  0.58252091    -0.32900
S3624       S  0.57145684  0.64072116  0.50729169    -0.32900
H3625       H  0.57993160  0.62387455  0.52917787     0.28500
H3626       H  0.96124919  0.65551739  0.59268468     0.28500
H3627       H  0.98652729  0.62810430  0.56677191     0.19100
H3628       H  0.55242819  0.69204722  0.51815661     0.19100
C3629       C  0.78761183  0.52930296  0.66368655    -0.06700
C3630       C  0.76505707  0.02158338  0.65083826    -0.17900
C3631       C  0.76568562  0.01802930  0.62198488     0.10500
C3632       C  0.78917790  0.52059425  0.60560035    -0.06600
C3633       C  0.81238739  0.53215652  0.61934207    -0.17900
C3634       C  0.81216839  0.53594156  0.64825112     0.10500
S3635       S  0.73366179  0.00807870  0.60473694    -0.32900
S3636       S  0.84474892  0.54629618  0.66419529    -0.32900
H3637       H  0.84272334  0.52620396  0.68522922     0.28500
H3638       H  0.74167080  0.01938772  0.57887531     0.28500
H3639       H  0.74560545  0.01780362  0.66192368     0.19100
H3640       H  0.83154640  0.53599628  0.60795387     0.19100
C3641       C  0.79364491  0.93657712  0.54513394    -0.06700
C3642       C  0.78350117  0.91938210  0.56680301    -0.17900
C3643       C  0.78323288  0.89078518  0.56472023     0.10500
C3644       C  0.79209968  0.87823204  0.53977703    -0.06600
C3645       C  0.80098539  0.89509136  0.51756157    -0.17900
C3646       C  0.80165793  0.92387928  0.51973723     0.10500
S3647       S  0.77263483  0.87186931  0.59557380    -0.32900
S3648       S  0.80382455  0.93916259  0.98778503    -0.32900
H3649       H  0.81397105  0.92199798  0.47055208     0.28500
H3650       H  0.79488075  0.85397583  0.59425362     0.28500
H3651       H  0.77620241  0.92752897  0.58617542     0.19100
H3652       H  0.80730960  0.88561473  0.49825655     0.19100
C3653       C  0.92026241  0.51898843  0.54140757    -0.06700
C3654       C  0.90457758  0.51724712  0.51684731    -0.17900
C3655       C  0.87546783  0.51519445  0.51768109     0.10500
C3656       C  0.86139369  0.51460204  0.54355716    -0.06600
C3657       C  0.87816728  0.01947961  0.56846446    -0.17900
C3658       C  0.90725369  0.02159474  0.56777965     0.10500
S3659       S  0.85731422  0.51178737  0.48511636    -0.32900
S3660       S  0.92481416  0.02413480  0.60081895    -0.32900
H3661       H  0.94505527  0.00512779  0.59393676     0.28500
H3662       H  0.83377261  0.52527368  0.49451786     0.28500
H3663       H  0.91506731  0.51738707  0.49681780     0.19100
H3664       H  0.86790679  0.01835957  0.58844742     0.19100
C3665       C  0.76050563  0.69688604  0.75626252    -0.06700
C3666       C  0.78077200  0.68926864  0.77542450    -0.17900
C3667       C  0.78804106  0.66163280  0.77816268     0.10500
C3668       C  0.77474803  0.64118745  0.76137645    -0.06600
C3669       C  0.75548669  0.64901039  0.74151260    -0.17900
C3670       C  0.74837565  0.67639819  0.73855820     0.10500
S3671       S  0.81301828  0.65362194  0.80448344    -0.32900
S3672       S  0.72295607  0.68324286  0.71220225    -0.32900
H3673       H  0.73220406  0.71029374  0.70665719     0.28500
H3674       H  0.82223098  0.62947972  0.79197045     0.28500
H3675       H  0.79013093  0.70472344  0.78910838     0.19100
H3676       H  0.74534433  0.63342221  0.72850139     0.19100
C3677       C  0.68241705  0.76231329  0.76065145    -0.06700
C3678       C  0.66423197  0.76693816  0.73829585    -0.17900
C3679       C  0.63578425  0.77000033  0.74234888     0.10500
C3680       C  0.62433414  0.76797098  0.76933850    -0.06600
C3681       C  0.64183800  0.76307497  0.79180957    -0.17900
C3682       C  0.67049670  0.75960262  0.78781932     0.10500
S3683       S  0.61518848  0.77679478  0.71196075    -0.32900
S3684       S  0.69110251  0.75057621  0.81764502    -0.32900
H3685       H  0.66954333  0.74991620  0.83754602     0.28500
H3686       H  0.59692653  0.79439131  0.72549197     0.28500
H3687       H  0.67137542  0.76773452  0.71708053     0.19100
H3688       H  0.63276019  0.76101204  0.81241022     0.19100
C3689       C  0.76659608  0.76521724  0.69484977    -0.06700
C3690       C  0.77729844  0.74212372  0.68167042    -0.17900
C3691       C  0.78213549  0.74182804  0.65278114     0.10500
C3692       C  0.77719942  0.76558346  0.63671881    -0.06600
C3693       C  0.76881079  0.78936031  0.65057125    -0.17900
C3694       C  0.76366568  0.78946085  0.67920926     0.10500
S3695       S  0.79185501  0.70970763  0.63758522    -0.32900
S3696       S  0.75298370  0.82112148  0.69466353    -0.32900
H3697       H  0.76534841  0.81582094  0.72033048     0.28500
H3698       H  0.77219685  0.71044249  0.61603766     0.28500
H3699       H  0.77969833  0.72342837  0.69349398     0.19100
H3700       H  0.76585022  0.80807558  0.63893189     0.19100
C3701       C  0.62407576  0.79990042  0.50796421    -0.06700
C3702       C  0.63745376  0.79042645  0.98575833    -0.17900
C3703       C  0.66937881  0.78821217  0.48809789     0.10500
C3704       C  0.68083790  0.78745456  0.51505118    -0.06600
C3705       C  0.66446454  0.79485907  0.53785792    -0.17900
C3706       C  0.63661785  0.80151837  0.53470667     0.10500
S3707       S  0.68597003  0.77683563  0.95837603    -0.32900
S3708       S  0.61764619  0.81179577  0.56542408    -0.32900
H3709       H  0.64028439  0.81371799  0.58380912     0.28500
H3710       H  0.66544760  0.78109099  0.93827567     0.28500
H3711       H  0.62990920  0.79165282  0.96485789     0.19100
H3712       H  0.67354404  0.79515610  0.55843102     0.19100
C3713       C  0.53437902  0.79460695  0.94697041    -0.06700
C3714       C  0.53077493  0.81723771  0.92947811    -0.17900
C3715       C  0.52582157  0.81376867  0.90075825     0.10500
C3716       C  0.52457303  0.78701070  0.88907160    -0.06600
C3717       C  0.52640415  0.76435101  0.90686734    -0.17900
C3718       C  0.53145512  0.76787074  0.93540976     0.10500
S3719       S  0.52150682  0.84367521  0.87919543    -0.32900
S3720       S  0.03275046  0.73628491  0.95589282    -0.32900
H3721       H  0.52200160  0.74821401  0.97877408     0.28500
H3722       H  0.52093127  0.86302711  0.90098134     0.28500
H3723       H  0.53378754  0.83772138  0.93791439     0.19100
H3724       H  0.52525571  0.74372989  0.89826532     0.19100
C3725       C  0.53446640  0.92005626  0.52303866    -0.06700
C3726       C  0.54529422  0.90497816  0.54512246    -0.17900
C3727       C  0.54994874  0.87690374  0.54249914     0.10500
C3728       C  0.54427396  0.86333675  0.51702519    -0.06600
C3729       C  0.53165524  0.87709078  0.99487642    -0.17900
C3730       C  0.52787899  0.90542552  0.99741880     0.10500
S3731       S  0.06002771  0.85673590  0.57148985    -0.32900
S3732       S  0.51903576  0.92349899  0.96616337    -0.32900
H3733       H  0.53869762  0.94526840  0.97039495     0.28500
H3734       H  0.55197294  0.83333098  0.56547789     0.28500
H3735       H  0.55039502  0.91517431  0.56462132     0.19100
H3736       H  0.52877277  0.86738879  0.97478355     0.19100
C3737       C  0.50973141  0.60904391  0.79510121    -0.06700
C3738       C  0.48697611  0.62419292  0.80351071    -0.17900
C3739       C  0.48649836  0.65262435  0.79919121     0.10500
C3740       C  0.50978905  0.66651489  0.78674575    -0.06600
C3741       C  0.53188152  0.65096646  0.77685909    -0.17900
C3742       C  0.53221953  0.62246701  0.78112306     0.10500
S3743       S  0.45576172  0.67052069  0.80929185    -0.32900
S3744       S  0.56232064  0.60477083  0.76913804    -0.32900
H3745       H  0.56141086  0.58374568  0.78913587     0.28500
H3746       H  0.43890652  0.64708895  0.81577107     0.28500
H3747       H  0.46986212  0.61370676  0.81436467     0.19100
H3748       H  0.54967213  0.66124075  0.76689958     0.19100
C3749       C  0.94768437  0.53970051  0.79101716    -0.06700
C3750       C  0.93634120  0.56258782  0.77813697    -0.17900
C3751       C  0.90759581  0.56369858  0.77311691     0.10500
C3752       C  0.88960462  0.54086823  0.77995894    -0.06600
C3753       C  0.90144224  0.51731938  0.79103914    -0.17900
C3754       C  0.92993429  0.51642884  0.79646502     0.10500
S3755       S  0.89511170  0.59573959  0.76044224    -0.32900
S3756       S  0.94229468  0.48473632  0.81017008    -0.32900
H3757       H  0.96861318  0.48800706  0.79778403     0.28500
H3758       H  0.87280329  0.59637220  0.77947834     0.28500
H3759       H  0.94961066  0.58053431  0.77370483     0.19100
H3760       H  0.88831044  0.49928709  0.79572422     0.19100
C3761       C  0.51533740  0.53155273  0.93028969    -0.06700
C3762       C  0.49537620  0.54883552  0.91994599    -0.17900
C3763       C  0.49339085  0.55402755  0.89137327     0.10500
C3764       C  0.51155255  0.54095896  0.87240066    -0.06600
C3765       C  0.53204107  0.52412297  0.88351041    -0.17900
C3766       C  0.53395697  0.51918903  0.91199170     0.10500
S3767       S  0.46791207  0.57798163  0.87990490    -0.32900
S3768       S  0.56688603  0.00249680  0.92092316    -0.32900
H3769       H  0.55310387  0.99060332  0.94407439     0.28500
H3770       H  0.45769119  0.58514035  0.90631944     0.28500
H3771       H  0.48169328  0.55872926  0.93450536     0.19100
H3772       H  0.54734464  0.51475054  0.87063757     0.19100
C3773       C  0.79382962  0.87041296  0.79578926    -0.06700
C3774       C  0.81756939  0.88831041  0.79291871    -0.17900
C3775       C  0.81567230  0.91628786  0.78687850     0.10500
C3776       C  0.78941697  0.92783214  0.78424460    -0.06600
C3777       C  0.76553845  0.91076098  0.78828994    -0.17900
C3778       C  0.76736610  0.88254113  0.79468424     0.10500
S3779       S  0.84791285  0.93609882  0.78231490    -0.32900
S3780       S  0.73564615  0.86283183  0.80270364    -0.32900
H3781       H  0.71693300  0.88332692  0.79623271     0.28500
H3782       H  0.83814813  0.95295677  0.76101889     0.28500
H3783       H  0.83823423  0.88126063  0.79575872     0.19100
H3784       H  0.74540292  0.91987401  0.78744293     0.19100
C3785       C  0.85547987  0.78782034  0.80049290    -0.06700
C3786       C  0.86317097  0.77368562  0.77629471    -0.17900
C3787       C  0.89083513  0.76661504  0.77176612     0.10500
C3788       C  0.91102060  0.77331034  0.79215225    -0.06600
C3789       C  0.90288900  0.78554168  0.81709337    -0.17900
C3790       C  0.87569458  0.79358083  0.82128227     0.10500
S3791       S  0.89926253  0.74994221  0.73940529    -0.32900
S3792       S  0.86969915  0.81291389  0.85282013    -0.32900
H3793       H  0.84185698  0.81882433  0.84921583     0.28500
H3794       H  0.92277723  0.73682533  0.74929089     0.28500
H3795       H  0.84788814  0.76953196  0.76017190     0.19100
H3796       H  0.91843981  0.79083372  0.83267507     0.19100
C3797       C  0.78542762  0.78889663  0.86202745    -0.06700
C3798       C  0.80729231  0.77467498  0.87387849    -0.17900
C3799       C  0.80695583  0.76737767  0.90215497     0.10500
C3800       C  0.78386863  0.77365180  0.91894952    -0.06600
C3801       C  0.76098452  0.78569068  0.90655422    -0.17900
C3802       C  0.76147861  0.79330149  0.87838528     0.10500
S3803       S  0.83699254  0.75103039  0.91576286    -0.32900
S3804       S  0.73095309  0.80861377  0.86460271    -0.32900
H3805       H  0.73498618  0.79976939  0.83706692     0.28500
H3806       H  0.82307071  0.73716342  0.93773073     0.28500
H3807       H  0.82539686  0.77034708  0.86138675     0.19100
H3808       H  0.74297756  0.79016974  0.91918261     0.19100
loop_ 
_geom_bond_atom_site_label_1 
_geom_bond_atom_site_label_2 
_geom_bond_distance 
_geom_bond_site_symmetry_2 
_ccdc_geom_bond_type 
C1            C2   1.544       .  S
C1            C7   1.539       .  S
C1            C5   1.537       .  S
C1          C441   1.551       .  S
C2            H9   1.080       .  S
C2            C3   1.359       .  D
C3            C4   1.537       .  S
C3          C453   1.477       .  S
C4            C8   1.544       .  S
C4            C6   1.544       .  S
C4           H10   1.111       .  S
C5           H11   1.083       .  S
C5            C6   1.370       .  D
C6           C42   1.488       .  S
C7           H12   1.086       .  S
C7            C8   1.371       .  D
C8          C465   1.493       .  S
C13          C19   1.527       .  S
C13          C17   1.533       .  S
C13        C1918   1.542   1_455  S
C13         C432   1.529       .  S
C14        C1917   1.539       .  S
C14          H21   1.086       .  S
C14          C15   1.367       .  D
C15          C16   1.549       .  S
C15         C417   1.498       .  S
C16        C1924   1.548       .  S
C16        C1922   1.556       .  S
C16          H22   1.109       .  S
C17          H23   1.084       .  S
C17          C18   1.358       .  D
C18        C1920   1.553       .  S
C18          C90   1.478       .  S
C19          H24   1.087       .  S
C19          C20   1.360       .  D
C20        C1920   1.543       .  S
C20         C405   1.479       .  S
C25          C26   1.531       .  S
C25          C29   1.526       .  S
C25         C507   1.546   1_554  S
C25         C369   1.537       .  S
C26          H33   1.086       .  S
C26          C27   1.366       .  D
C27         C504   1.548   1_554  S
C27         C396   1.485       .  S
C28          C32   1.551       .  S
C28         C503   1.547       .  S
C28         C506   1.548       .  S
C28          H34   1.109       .  S
C29          H35   1.087       .  S
C29          C30   1.363       .  D
C30         C504   1.549   1_554  S
C30          C66   1.485       .  S
C31         C501   1.547       .  S
C31          H36   1.080       .  S
C31          C32   1.363       .  D
C32         C381   1.495       .  S
C37          C38   1.527       .  S
C37          C43   1.546       .  S
C37          C41   1.532       .  S
C37         C345   1.540       .  S
C38          H45   1.087       .  S
C38          C39   1.364       .  D
C39          C40   1.548       .  S
C39         C333   1.489       .  S
C40          C44   1.543       .  S
C40          C42   1.555       .  S
C40          H46   1.111       .  S
C41          H47   1.085       .  S
C41          C42   1.367       .  D
C43          H48   1.084       .  S
C43          C44   1.365       .  D
C44         C357   1.490       .  S
C49          C50   1.547       .  S
C49          C55   1.529       .  S
C49          C53   1.536       .  S
C49         C309   1.542       .  S
C50          H57   1.079       .  S
C50        C1003   1.366       .  D
C51          C52   1.536       .  S
C51        C1002   1.365   1_545  D
C51         C300   1.482       .  S
C52          C56   1.549       .  S
C52          C54   1.547       .  S
C52          H58   1.109       .  S
C53          H59   1.085       .  S
C53        C1006   1.368       .  D
C54        C1005   1.367   1_545  D
C54          C78   1.484       .  S
C55          H60   1.087       .  S
C55        C1008   1.358       .  D
C56        C1007   1.358   1_545  D
C56         C324   1.484       .  S
C61          C67   1.530       .  S
C61          C65   1.536       .  S
C61        C1966   1.530   1_455  S
C61         C288   1.538       .  S
C62        C1965   1.530       .  S
C62          H69   1.087       .  S
C62          C63   1.361       .  D
C63          C64   1.547       .  S
C63         C273   1.475       .  S
C64        C1972   1.550       .  S
C64        C1970   1.547       .  S
C64          H70   1.110       .  S
C65          H71   1.078       .  S
C65          C66   1.364       .  D
C66        C1968   1.545       .  S
C67          H72   1.087       .  S
C67          C68   1.364       .  D
C68        C1968   1.552       .  S
C68         C264   1.492       .  S
C73          C74   1.531       .  S
C73          C79   1.546       .  S
C73          C77   1.529       .  S
C73         C237   1.534       .  S
C74          H81   1.087       .  S
C74         C551   1.361       .  D
C75          C76   1.545       .  S
C75         C550   1.361   1_554  D
C75         C225   1.480       .  S
C76          C80   1.547       .  S
C76          C78   1.548       .  S
C76          H82   1.111       .  S
C77          H83   1.087       .  S
C77         C554   1.362       .  D
C78         C553   1.366   1_554  D
C79          H84   1.080       .  S
C79         C556   1.364       .  D
C80         C555   1.363   1_554  D
C80         C252   1.487       .  S
C85          C86   1.534       .  S
C85          C91   1.543       .  S
C85          C89   1.529       .  S
C85         C201   1.540       .  S
C86          H93   1.086       .  S
C86        C1039   1.366       .  D
C87          C88   1.546       .  S
C87        C1038   1.366   1_545  D
C87         C189   1.488       .  S
C88          C92   1.528       .  S
C88          C90   1.536       .  S
C88          H94   1.110       .  S
C89          H95   1.084       .  S
C89        C1042   1.367       .  D
C90        C1041   1.369   1_545  D
C91          H96   1.080       .  S
C91        C1044   1.362       .  D
C92        C1043   1.363   1_545  D
C92         C213   1.463       .  S
Zn97        O101   1.951       .  S
Zn97        O102   2.007       .  S
Zn97        O113   2.021       .  S
Zn97        O582   1.997   1_554  S
Zn98        O101   1.958       .  S
Zn98        O105   1.995       .  S
Zn98        O109   1.971       .  S
Zn98       O2007   2.007   1_455  S
Zn99        O101   1.958   1_565  S
Zn99        O580   2.014   1_564  S
Zn99       O2011   2.041   1_465  S
Zn99       O1062   2.034       .  S
Zn100       O101   1.969       .  S
Zn100       O111   2.016       .  S
Zn100       O112   2.050       .  S
Zn100      O1060   2.050   1_545  S
O102        C114   1.270       .  A
O103      Zn2002   2.019       .  S
O103        C115   1.272       .  A
O104       Zn575   1.992       .  S
O104        C116   1.271       .  A
O105        C114   1.270       .  A
O106       Zn573   2.000       .  S
O106        C116   1.272       .  A
O107      Zn2003   2.040       .  S
O107        C115   1.275       .  A
O108      Zn1052   2.039       .  S
O108        C117   1.278       .  A
O109        C118   1.269       .  A
O110      Zn1051   2.029       .  S
O110        C117   1.276       .  A
O111        C118   1.276       .  A
O112        C119   1.275       .  A
O113        C119   1.273       .  A
C114        C285   1.489       .  S
C115        C321   1.486       .  S
C116        C429   1.458       .  S
C117        C393   1.491       .  S
C118        C216   1.463       .  S
C119        C249   1.496       .  S
Zn120       O124   1.976       .  S
Zn120       O125   2.021       .  S
Zn120       O129   2.053       .  S
Zn120       O136   2.035       .  S
Zn121      O1076   1.963       .  S
Zn121       O126   2.040       .  S
Zn121      O1080   2.009       .  S
Zn121      O1084   2.021       .  S
Zn122       O124   1.955       .  S
Zn122       O127   2.021       .  S
Zn122       O133   2.003       .  S
Zn122      O1082   2.015   1_545  S
Zn123       O124   1.969       .  S
Zn123       O131   2.009       .  S
Zn123       O134   2.049       .  S
Zn123       O135   2.027       .  S
O124      Zn1073   1.963       .  S
O125        C137   1.275       .  A
O126        C138   1.274       .  A
O127        C139   1.274       .  A
O128      Zn1073   2.017       .  S
O128        C137   1.276       .  A
O129        C139   1.276       .  A
O130      Zn1074   2.013       .  S
O130        C138   1.272       .  A
O131        C140   1.274       .  A
O132      Zn1073   2.020       .  S
O132        C141   1.275       .  A
O133        C140   1.273       .  A
O134        C141   1.274       .  A
O135        C142   1.275       .  A
O136        C142   1.275       .  A
C137        C297   1.485       .  S
C138        C444   1.482       .  S
C139        C420   1.495       .  S
C140        C240   1.467       .  S
C141        C192   1.501       .  S
C142        C336   1.475       .  S
Zn143       O147   1.950       .  S
Zn143       O148   1.992       .  S
Zn143       O152   2.013       .  S
Zn143       O159   1.994       .  S
Zn144       O147   1.971       .  S
Zn144       O149   2.019       .  S
Zn144       O151   2.035       .  S
Zn144       O631   2.036   1_554  S
Zn145       O147   1.964       .  S
Zn145       O150   2.037       .  S
Zn145       O153   2.008       .  S
Zn145       O156   2.029       .  S
Zn146       O623   1.955       .  S
Zn146       O157   2.033       .  S
Zn146       O630   2.024       .  S
Zn146       O634   2.013       .  S
O147       Zn622   1.958       .  S
O148        C160   1.270       .  A
O149        C161   1.274       .  A
O150        C162   1.273       .  A
O151        C160   1.275       .  A
O152        C162   1.274       .  A
O153        C161   1.274       .  A
O154       Zn622   2.027       .  S
O154        C163   1.276       .  A
O155       Zn620   2.031       .  S
O155        C164   1.274       .  A
O156        C163   1.275       .  A
O157        C164   1.274       .  A
O158       Zn622   2.008       .  S
O158        C165   1.271       .  A
O159        C165   1.271       .  A
C160        C312   1.484       .  S
C161        C276   1.476       .  S
C162        C360   1.491       .  S
C163        C228   1.479       .  S
C164        C468   1.479       .  S
C165        C372   1.478       .  S
Zn166       O170   1.965       .  S
Zn166       O171   2.007       .  S
Zn166       O175   2.032       .  S
Zn166       O182   2.032       .  S
Zn167       O170   1.965   1_655  S
Zn167       O172   2.029       .  S
Zn167       O174   2.013   1_655  S
Zn167      O2082   2.019       .  S
Zn168       O170   1.959       .  S
Zn168       O173   2.008       .  S
Zn168       O176   2.033       .  S
Zn168       O179   2.028       .  S
Zn169       O170   1.962   1_655  S
Zn169       O177   2.031   1_655  S
Zn169       O181   2.050   1_655  S
Zn169      O2084   2.013       .  S
O171        C183   1.273       .  A
O172        C184   1.273   1_655  A
O173        C185   1.273       .  A
O174        C183   1.273       .  A
O175        C185   1.276       .  A
O176        C184   1.276       .  A
O177        C186   1.277       .  A
O178      Zn2071   2.023       .  S
O178        C187   1.275       .  A
O179        C186   1.275       .  A
O180      Zn2073   2.019       .  S
O180        C187   1.274       .  A
O181        C188   1.277       .  A
O182        C188   1.274       .  A
C183        C204   1.480       .  S
C184        C261   1.494       .  S
C185        C348   1.483       .  S
C186        C408   1.489       .  S
C187        C456   1.470       .  S
C188        C384   1.491       .  S
C189        C190   1.403       .  A
C189        C194   1.415       .  A
C190        C191   1.408       .  A
C190        H199   1.084       .  S
C191        C192   1.422       .  A
C191        S195   1.800       .  S
C192        C193   1.407       .  A
C193        C194   1.398       .  A
C193        H200   1.084   1_545  S
C194       S1148   1.808   1_545  S
S195        H198   1.405       .  S
S196       C1146   1.808       .  S
S196        H197   1.402       .  S
C201        C202   1.413       .  A
C201        C206   1.424       .  A
C202        C203   1.395       .  A
C202        H211   1.073       .  S
C203        C204   1.408       .  A
C203        S207   1.802       .  S
C204        C205   1.402       .  A
C205        C206   1.404       .  A
C205        H212   1.083       .  S
C206        S208   1.813       .  S
S207        H210   1.407   1_455  S
S208        H209   1.406       .  S
C213        C214   1.399       .  A
C213        C218   1.411       .  A
C214        C215   1.394       .  A
C214        H223   1.083       .  S
C215        C216   1.412       .  A
C215        S219   1.804       .  S
C216        C217   1.401       .  A
C217        C218   1.393       .  A
C217        H224   1.084   1_455  S
C218       S3076   1.807   1_455  S
S219        H222   1.407       .  S
S220       C3074   1.808       .  S
S220       H2125   1.399       .  S
H221       S2124   1.400       .  S
C225        C226   1.401       .  A
C225        C230   1.414       .  A
C226        C227   1.399       .  A
C226        H235   1.079       .  S
C227        C228   1.413       .  A
C227        S231   1.804       .  S
C228        C229   1.404       .  A
C229        C230   1.403       .  A
C229        H236   1.084       .  S
C230        S708   1.805       .  S
S231        H234   1.407       .  S
S232        C706   1.805       .  S
S232        H233   1.403       .  S
C237        C238   1.412       .  A
C237        C242   1.426       .  A
C238        C239   1.394       .  A
C238        H247   1.074       .  S
C239        C240   1.406       .  A
C239       S1195   1.805       .  S
C240        C241   1.397       .  A
C241        C242   1.401       .  A
C241        H248   1.083       .  S
C242        S244   1.812       .  S
S243       C1191   1.805       .  S
S243        H246   1.407       .  S
S244        H245   1.406       .  S
C249        C250   1.409       .  A
C249        C730   1.418       .  A
C250        C251   1.407       .  A
C250        H259   1.083   1_545  S
C251        C252   1.413       .  A
C251        S255   1.802   1_545  S
C252        C729   1.400       .  A
C253        C254   1.409       .  A
C253        C728   1.402       .  A
C253        H260   1.081       .  S
C254        C725   1.415       .  A
C254        S256   1.807       .  S
S255        H258   1.404       .  S
S256        H257   1.407       .  S
C261        C262   1.406       .  A
C261       C2170   1.420   1_455  A
C262        C263   1.400       .  A
C262        H271   1.084       .  S
C263        C264   1.414       .  A
C263        S267   1.804       .  S
C264       C2169   1.402   1_455  A
C265        C266   1.405       .  A
C265       C2168   1.402       .  A
C265        H272   1.077       .  S
C266       C2165   1.418       .  A
C266        S268   1.803       .  S
S267        H270   1.405       .  S
S268        H269   1.407       .  S
C273        C274   1.399       .  A
C273        C278   1.413       .  A
C274        C275   1.394       .  A
C274        H283   1.078       .  S
C275        C276   1.413       .  A
C275        S279   1.805       .  S
C276        C277   1.405       .  A
C277        C278   1.402       .  A
C277        H284   1.084   1_554  S
C278        S280   1.803   1_554  S
S279        H282   1.407       .  S
S280        H281   1.399       .  S
C285        C290   1.413       .  A
C285       C2190   1.406   1_455  A
C286        C287   1.400       .  A
C286       C2189   1.405       .  A
C286        H295   1.082       .  S
C287       C2192   1.422       .  A
C287        S291   1.814       .  S
C288        C289   1.411       .  A
C288       C2191   1.422   1_455  A
C289        C290   1.394       .  A
C289        H296   1.072       .  S
C290        S292   1.803       .  S
S291        H294   1.406       .  S
S292        H293   1.407       .  S
C297        C302   1.418       .  A
C297       C1250   1.406       .  A
C298        C299   1.396       .  A
C298       C1249   1.407       .  A
C298        H307   1.084       .  S
C299       C1252   1.410       .  A
C299        S303   1.805       .  S
C300        C301   1.400       .  A
C300       C1251   1.411       .  A
C301        C302   1.401       .  A
C301        H308   1.081       .  S
C302        S304   1.802       .  S
S303        H306   1.407       .  S
S304        H305   1.408       .  S
C309        C310   1.412       .  A
C309        C314   1.426       .  A
C310        C311   1.395       .  A
C310        H319   1.073       .  S
C311        C312   1.412       .  A
C311        S315   1.807       .  S
C312        C313   1.402       .  A
C313        C314   1.406       .  A
C313        H320   1.082   1_554  S
C314        S792   1.812   1_554  S
S315        H318   1.408       .  S
S316        C790   1.811       .  S
S316        H793   1.407       .  S
H317        S792   1.406       .  S
C321        C322   1.405       .  A
C321       C1278   1.416       .  A
C322        C323   1.402       .  A
C322        H331   1.084   1_554  S
C323        C324   1.411       .  A
C323        S327   1.800   1_554  S
C324       C1277   1.404       .  A
C325        C326   1.403       .  A
C325       C1276   1.404       .  A
C325        H332   1.082       .  S
C326       C1273   1.416       .  A
C326        S328   1.804       .  S
S327        H330   1.404       .  S
S328        H329   1.407       .  S
C333        C334   1.406       .  A
C333        C338   1.420       .  A
C334        C335   1.409       .  A
C334        H343   1.084       .  S
C335        C336   1.414       .  A
C335        S339   1.803       .  S
C336        C337   1.397       .  A
C337        C338   1.395       .  A
C337        H344   1.085       .  S
C338        S340   1.807       .  S
S339        H342   1.405       .  S
S340        H341   1.397       .  S
C345        C346   1.412       .  A
C345        C350   1.425       .  A
C346        C347   1.395       .  A
C346        H355   1.081       .  S
C347        C348   1.412       .  A
C347        S351   1.805       .  S
C348        C349   1.403       .  A
C349        C350   1.404       .  A
C349        H356   1.084       .  S
C350        S352   1.804       .  S
S351        H354   1.407       .  S
S352        H353   1.404       .  S
C357        C358   1.404       .  A
C357        C362   1.413       .  A
C358        C359   1.407       .  A
C358        H367   1.084       .  S
C359        C360   1.419       .  A
C359        S363   1.801       .  S
C360        C361   1.405       .  A
C361        C362   1.396       .  A
C361        H368   1.084       .  S
C362        S364   1.801       .  S
S363        H366   1.408       .  S
S364        H365   1.400       .  S
C369        C374   1.424       .  A
C369        C846   1.412   1_554  A
C370        C845   1.413       .  A
C370        C847   1.402       .  A
C370        H379   1.071       .  S
C371        C372   1.410   1_556  A
C371        C846   1.396       .  A
C371        S851   1.802       .  S
C372        C373   1.400       .  A
C373        C374   1.401       .  A
C373        H380   1.083       .  S
C374        S376   1.810       .  S
S375        C847   1.813       .  S
S375        H378   1.406       .  S
S376        H377   1.407       .  S
C381        C382   1.404       .  A
C381        C386   1.414       .  A
C382        C383   1.412       .  A
C382        H391   1.082       .  S
C383        C384   1.417       .  A
C383        S387   1.807       .  S
C384        C385   1.401       .  A
C385        C386   1.401       .  A
C385        H392   1.084       .  S
C386       S2292   1.794       .  S
S387        H390   1.407       .  S
S388       C2290   1.794       .  S
S388       H2293   1.402       .  S
H389       S2292   1.401       .  S
C393        C394   1.406       .  A
C393        C874   1.420   1_554  A
C394        C395   1.402       .  A
C394        H403   1.084       .  S
C395        C396   1.414       .  A
C395       S2303   1.804       .  S
C396        C873   1.400   1_554  A
C397        C398   1.404       .  A
C397        C872   1.400       .  A
C397        H404   1.083       .  S
C398        C869   1.422       .  A
C398        S400   1.802       .  S
S399       C2299   1.803       .  S
S399       H2306   1.406       .  S
S400        H401   1.407       .  S
H402       S2303   1.406       .  S
C405        C406   1.402   1_455  A
C405        C410   1.409       .  A
C406        C407   1.403       .  A
C406        H415   1.083       .  S
C407        C408   1.415   1_655  A
C407        S411   1.808       .  S
C408        C409   1.409       .  A
C409        C410   1.404       .  A
C409        H416   1.084       .  S
C410        S412   1.804       .  S
S411        H414   1.407       .  S
S412        H413   1.405       .  S
C417        C418   1.405       .  A
C417        C422   1.415       .  A
C418        C419   1.408       .  A
C418        H427   1.081       .  S
C419        C420   1.419       .  A
C419        S423   1.802       .  S
C420        C421   1.406       .  A
C421        C422   1.400       .  A
C421        H428   1.084   1_545  S
C422        S424   1.801   1_545  S
S423        H426   1.407       .  S
S424        H425   1.403       .  S
C429        C430   1.397   1_455  A
C429        C434   1.402       .  A
C430        C431   1.399       .  A
C430        H439   1.083       .  S
C431        C432   1.422   1_655  A
C431        S435   1.812       .  S
C432        C433   1.414       .  A
C433        C434   1.393       .  A
C433        H440   1.078       .  S
C434       S1388   1.806       .  S
S435        H438   1.407       .  S
S436       C1386   1.807       .  S
S436        H437   1.405       .  S
C441        C442   1.415       .  A
C441        C446   1.426       .  A
C442        C443   1.396       .  A
C442        H451   1.074       .  S
C443        C444   1.407       .  A
C443        S447   1.807       .  S
C444        C445   1.402       .  A
C445        C446   1.412       .  A
C445        H452   1.083       .  S
C446        S448   1.811       .  S
S447        H450   1.407       .  S
S448        H449   1.406       .  S
C453        C454   1.404       .  A
C453        C458   1.418       .  A
C454        C455   1.404       .  A
C454        H463   1.084       .  S
C455        C456   1.412       .  A
C455        S459   1.803       .  S
C456        C457   1.397       .  A
C457        C458   1.395       .  A
C457        H464   1.085       .  S
C458        S460   1.809       .  S
S459        H462   1.406       .  S
S460        H461   1.394       .  S
C465        C466   1.406       .  A
C465        C470   1.416       .  A
C466        C467   1.403       .  A
C466        H475   1.083       .  S
C467        C468   1.411       .  A
C467        S471   1.804       .  S
C468        C469   1.403       .  A
C469        C470   1.403       .  A
C469        H476   1.084       .  S
C470        S472   1.804       .  S
S471        H474   1.406       .  S
S472        H473   1.405       .  S
C477        C478   1.546       .  S
C477        C483   1.542       .  S
C477        C481   1.536       .  S
C477        C917   1.555       .  S
C478        H485   1.079       .  S
C478        C479   1.359       .  D
C479        C480   1.536       .  S
C479        C929   1.478       .  S
C480        C484   1.543       .  S
C480        C482   1.544       .  S
C480        H486   1.111       .  S
C481        H487   1.084       .  S
C481        C482   1.370       .  D
C482        C518   1.488       .  S
C483        H488   1.086       .  S
C483        C484   1.372       .  D
C484        C941   1.492       .  S
C489       C2394   1.543   1_455  S
C489        C495   1.530       .  S
C489        C493   1.534       .  S
C489        C908   1.537       .  S
C490       C2393   1.540       .  S
C490        H497   1.086       .  S
C490        C491   1.367       .  D
C491        C492   1.550       .  S
C491        C893   1.500       .  S
C492       C2400   1.547       .  S
C492       C2398   1.557       .  S
C492        H498   1.109       .  S
C493        H499   1.081       .  S
C493        C494   1.359       .  D
C494       C2396   1.553       .  S
C494        C566   1.480       .  S
C495        H500   1.087       .  S
C495        C496   1.363       .  D
C496       C2396   1.543       .  S
C496        C881   1.479       .  S
C501        C502   1.533       .  S
C501        C505   1.528       .  S
C501        C845   1.543       .  S
C502        H509   1.086       .  S
C502        C503   1.368       .  D
C503        C872   1.486       .  S
C504        C508   1.553       .  S
C504        H510   1.109       .  S
C505        H511   1.087       .  S
C505        C506   1.363       .  D
C506        C542   1.484       .  S
C507        H512   1.081       .  S
C507        C508   1.363       .  D
C508        C857   1.495       .  S
C513        C514   1.533       .  S
C513        C519   1.548       .  S
C513        C517   1.530       .  S
C513        C821   1.546       .  S
C514        H521   1.086       .  S
C514        C515   1.366       .  D
C515        C516   1.549       .  S
C515        C809   1.494       .  S
C516        C520   1.541       .  S
C516        C518   1.553       .  S
C516        H522   1.111       .  S
C517        H523   1.086       .  S
C517        C518   1.365       .  D
C519        H524   1.079       .  S
C519        C520   1.366       .  D
C520        C833   1.488       .  S
C525        C526   1.545       .  S
C525        C531   1.526       .  S
C525        C529   1.536       .  S
C525        C785   1.540       .  S
C526        H533   1.079       .  S
C526       C1479   1.365       .  D
C527        C528   1.533       .  S
C527       C1478   1.365   1_545  D
C527        C776   1.477       .  S
C528        C532   1.547       .  S
C528        C530   1.542       .  S
C528        H534   1.109       .  S
C529        H535   1.085       .  S
C529       C1482   1.370       .  D
C530       C1481   1.369   1_545  D
C530        C554   1.482       .  S
C531        H536   1.087       .  S
C531       C1484   1.357       .  D
C532       C1483   1.358   1_545  D
C532        C800   1.477       .  S
C537       C2442   1.530   1_455  S
C537        C543   1.531       .  S
C537        C541   1.536       .  S
C537        C764   1.535       .  S
C538       C2441   1.528       .  S
C538        H545   1.087       .  S
C538        C539   1.360       .  D
C539        C540   1.548       .  S
C539        C749   1.475       .  S
C540       C2448   1.554       .  S
C540       C2446   1.551       .  S
C540        H546   1.110       .  S
C541        H547   1.079       .  S
C541        C542   1.366       .  D
C542       C2444   1.546       .  S
C543        H548   1.087       .  S
C543        C544   1.364       .  D
C544       C2444   1.551       .  S
C544        C740   1.494       .  S
C549        C550   1.532       .  S
C549        C555   1.546       .  S
C549        C553   1.534       .  S
C549        C713   1.539       .  S
C550        H557   1.087       .  S
C551        C552   1.545       .  S
C551        C701   1.480       .  S
C552        C556   1.546       .  S
C552        C554   1.551       .  S
C552        H558   1.110       .  S
C553        H559   1.087       .  S
C555        H560   1.080       .  S
C556        C728   1.487       .  S
C561        C562   1.534       .  S
C561        C567   1.543       .  S
C561        C565   1.530       .  S
C561        C677   1.538       .  S
C562        H569   1.087       .  S
C562       C1515   1.364       .  D
C563        C564   1.548   1_565  S
C563       C1514   1.366       .  D
C563        C665   1.495   1_565  S
C564        C568   1.529       .  S
C564        C566   1.541       .  S
C564        H570   1.110       .  S
C565        H571   1.083       .  S
C565       C1518   1.367       .  D
C566       C1517   1.368   1_545  D
C567        H572   1.081       .  S
C567       C1520   1.362       .  D
C568       C1519   1.363   1_545  D
C568        C689   1.464       .  S
Zn573       O577   1.956       .  S
Zn573       O578   2.011       .  S
Zn573       O589   2.029       .  S
Zn574       O577   1.948       .  S
Zn574      O2483   2.007   1_455  S
Zn574       O581   1.983       .  S
Zn574       O585   1.975       .  S
Zn575       O577   1.955       .  S
Zn575      O2487   2.025   1_455  S
Zn575      O1538   2.019   1_545  S
Zn576       O577   1.956       .  S
Zn576      O1536   2.037   1_545  S
Zn576       O587   2.017       .  S
Zn576       O588   2.033       .  S
O578        C590   1.270       .  A
O579      Zn2478   2.006       .  S
O579        C591   1.270       .  A
O580        C592   1.273       .  A
O581        C590   1.270       .  A
O582        C592   1.271       .  A
O583      Zn2479   2.020       .  S
O583        C591   1.273       .  A
O584      Zn1528   2.037       .  S
O584        C593   1.278       .  A
O585        C594   1.269       .  A
O586      Zn1527   2.018       .  S
O586        C593   1.273       .  A
O587        C594   1.275       .  A
O588        C595   1.274       .  A
O589        C595   1.274       .  A
C590        C761   1.486       .  S
C591        C797   1.478       .  S
C592        C905   1.460       .  S
C593        C869   1.492       .  S
C594        C692   1.463       .  S
C595        C725   1.485       .  S
Zn596       O600   1.980       .  S
Zn596       O601   2.011       .  S
Zn596       O605   2.058       .  S
Zn596       O612   2.045       .  S
Zn597      O1552   1.972       .  S
Zn597       O602   2.054       .  S
Zn597      O1556   2.021       .  S
Zn597      O1560   2.033       .  S
Zn598       O600   1.960       .  S
Zn598       O603   2.029       .  S
Zn598      O1558   2.021   1_545  S
Zn598       O609   2.007       .  S
Zn599       O600   1.970       .  S
Zn599       O607   2.015       .  S
Zn599       O610   2.051       .  S
Zn599       O611   2.036       .  S
O600      Zn1549   1.973       .  S
O601        C613   1.274       .  A
O602        C614   1.276       .  A
O603        C615   1.275       .  A
O604      Zn1549   2.023       .  S
O604        C613   1.277       .  A
O605        C615   1.276       .  A
O606      Zn1550   2.019       .  S
O606        C614   1.273       .  A
O607        C616   1.275       .  A
O608      Zn1549   2.038       .  S
O608        C617   1.276       .  A
O609        C616   1.273       .  A
O610        C617   1.275       .  A
O611        C618   1.276       .  A
O612        C618   1.276       .  A
C613        C773   1.480       .  S
C614        C920   1.486       .  S
C615        C896   1.500       .  S
C616        C716   1.471       .  S
C617        C668   1.508       .  S
C618        C812   1.482       .  S
Zn619       O623   1.952       .  S
Zn619       O624   1.984       .  S
Zn619       O628   2.014       .  S
Zn619       O635   2.006       .  S
Zn620       O623   1.970       .  S
Zn620       O625   2.013       .  S
Zn620       O627   2.029       .  S
Zn621       O623   1.968       .  S
Zn621       O626   2.037       .  S
Zn621       O629   2.022       .  S
Zn621       O632   2.041       .  S
Zn622       O633   2.035   1_554  S
O624        C636   1.269       .  A
O625        C637   1.273       .  A
O626        C638   1.273       .  A
O627        C636   1.274       .  A
O628        C638   1.274       .  A
O629        C637   1.276       .  A
O630        C639   1.277       .  A
O631        C640   1.275       .  A
O632        C639   1.277       .  A
O633        C640   1.275       .  A
O634        C641   1.272       .  A
O635        C641   1.272       .  A
C636        C788   1.480       .  S
C637        C752   1.476       .  S
C638        C836   1.491       .  S
C639        C704   1.490       .  S
C640        C944   1.481       .  S
C641        C848   1.485       .  S
Zn642       O646   1.966       .  S
Zn642       O647   2.004       .  S
Zn642       O651   2.030       .  S
Zn642       O658   2.025       .  S
Zn643       O646   1.970   1_655  S
Zn643       O648   2.039       .  S
Zn643       O650   2.011   1_655  S
Zn643      O2558   2.025       .  S
Zn644       O646   1.962       .  S
Zn644       O649   2.016       .  S
Zn644       O652   2.035       .  S
Zn644       O655   2.028       .  S
Zn645       O646   1.964   1_655  S
Zn645       O653   2.027   1_655  S
Zn645      O2560   2.022       .  S
Zn645       O657   2.061   1_655  S
O647        C659   1.273       .  A
O648        C660   1.273   1_655  A
O649        C661   1.274       .  A
O650        C659   1.274       .  A
O651        C661   1.274       .  A
O652        C660   1.276       .  A
O653        C662   1.277       .  A
O654      Zn2547   2.024       .  S
O654        C663   1.275       .  A
O655        C662   1.276       .  A
O656      Zn2549   2.016       .  S
O656        C663   1.273       .  A
O657        C664   1.277       .  A
O658        C664   1.273       .  A
C659        C680   1.474       .  S
C660        C737   1.499       .  S
C661        C824   1.475       .  S
C662        C884   1.491       .  S
C663        C932   1.469       .  S
C664        C860   1.495       .  S
C665        C666   1.402       .  A
C665        C670   1.417   1_545  A
C666        C667   1.409       .  A
C666        H675   1.084       .  S
C667        C668   1.425       .  A
C667        S671   1.799       .  S
C668        C669   1.409       .  A
C669        C670   1.402   1_545  A
C669        H676   1.083   1_545  S
C670       S1624   1.807       .  S
S671        H674   1.406       .  S
S672       C1622   1.807       .  S
S672        H673   1.401       .  S
C677        C678   1.414       .  A
C677        C682   1.425       .  A
C678        C679   1.398       .  A
C678        H687   1.071       .  S
C679        C680   1.406       .  A
C679        S683   1.812       .  S
C680        C681   1.400       .  A
C681        C682   1.403       .  A
C681        H688   1.083       .  S
C682        S684   1.813       .  S
S683        H686   1.406       .  S
S684        H685   1.407       .  S
C689        C690   1.399       .  A
C689        C694   1.410       .  A
C690        C691   1.395       .  A
C690        H699   1.084       .  S
C691        C692   1.412       .  A
C691        S695   1.804       .  S
C692        C693   1.402       .  A
C693        C694   1.393       .  A
C693        H700   1.084   1_455  S
C694       S3552   1.806   1_455  S
S695        H698   1.407       .  S
S696       C3550   1.806       .  S
S696       H2601   1.403       .  S
H697       S2600   1.403       .  S
C701        C702   1.401       .  A
C701        C706   1.412       .  A
C702        C703   1.398       .  A
C702        H711   1.083       .  S
C703        C704   1.417       .  A
C703        S707   1.804       .  S
C704        C705   1.408       .  A
C705        C706   1.406       .  A
C705        H712   1.084       .  S
S707        H710   1.408       .  S
S708        H709   1.402       .  S
C713        C714   1.413       .  A
C713        C718   1.426       .  A
C714        C715   1.396       .  A
C714        H723   1.073       .  S
C715        C716   1.407       .  A
C715       S1671   1.806       .  S
C716        C717   1.398       .  A
C717        C718   1.403       .  A
C717        H724   1.083       .  S
C718        S720   1.810       .  S
S719       C1667   1.804       .  S
S719        H722   1.407       .  S
S720        H721   1.406       .  S
C725        C726   1.402       .  A
C726        C727   1.400       .  A
C726        H735   1.084   1_545  S
C727        C728   1.413       .  A
C727        S731   1.799   1_545  S
C729        C730   1.403       .  A
C729        H736   1.079       .  S
C730        S732   1.808       .  S
S731        H734   1.403       .  S
S732        H733   1.407       .  S
C737        C738   1.407       .  A
C737       C2646   1.422   1_455  A
C738        C739   1.400       .  A
C738        H747   1.084       .  S
C739        C740   1.414       .  A
C739        S743   1.805       .  S
C740       C2645   1.403   1_455  A
C741       C2644   1.402       .  A
C741        C742   1.407       .  A
C741        H748   1.078       .  S
C742       C2641   1.419       .  A
C742        S744   1.802       .  S
S743        H746   1.406       .  S
S744        H745   1.408       .  S
C749        C750   1.400       .  A
C749        C754   1.413       .  A
C750        C751   1.395       .  A
C750        H759   1.078       .  S
C751        C752   1.412       .  A
C751        S755   1.805       .  S
C752        C753   1.404       .  A
C753        C754   1.402       .  A
C753        H760   1.084       .  S
C754        S756   1.804       .  S
S755        H758   1.407       .  S
S756        H757   1.402       .  S
C761       C2666   1.405       .  A
C761        C766   1.413       .  A
C762       C2665   1.404       .  A
C762        C763   1.399       .  A
C762        H771   1.082       .  S
C763       C2668   1.422       .  A
C763        S767   1.815       .  S
C764       C2667   1.422   1_455  A
C764        C765   1.412       .  A
C765        C766   1.396       .  A
C765        H772   1.073       .  S
C766        S768   1.804       .  S
S767        H770   1.406       .  S
S768        H769   1.408       .  S
C773       C1726   1.405       .  A
C773        C778   1.417       .  A
C774       C1725   1.406       .  A
C774        C775   1.397       .  A
C774        H783   1.084       .  S
C775       C1728   1.410       .  A
C775        S779   1.805       .  S
C776       C1727   1.410       .  A
C776        C777   1.399       .  A
C777        C778   1.399       .  A
C777        H784   1.080       .  S
C778        S780   1.803       .  S
S779        H782   1.407       .  S
S780        H781   1.407       .  S
C785        C786   1.412       .  A
C785        C790   1.425       .  A
C786        C787   1.394       .  A
C786        H795   1.073       .  S
C787        C788   1.411       .  A
C787        S791   1.807       .  S
C788        C789   1.401       .  A
C789        C790   1.404       .  A
C789        H796   1.083       .  S
S791        H794   1.408       .  S
C797        C798   1.404       .  A
C797       C1754   1.415       .  A
C798        C799   1.398       .  A
C798        H807   1.084       .  S
C799        C800   1.411       .  A
C799        S803   1.800       .  S
C800       C1753   1.402       .  A
C801       C1752   1.401       .  A
C801        C802   1.400       .  A
C801        H808   1.078       .  S
C802       C1749   1.415       .  A
C802        S804   1.803       .  S
S803        H806   1.403       .  S
S804        H805   1.407       .  S
C809        C810   1.406       .  A
C809        C814   1.419       .  A
C810        C811   1.411       .  A
C810        H819   1.084       .  S
C811        C812   1.416       .  A
C811        S815   1.803       .  S
C812        C813   1.399       .  A
C813        C814   1.398       .  A
C813        H820   1.084       .  S
C814        S816   1.806       .  S
S815        H818   1.404       .  S
S816        H817   1.400       .  S
C821        C822   1.415       .  A
C821        C826   1.427       .  A
C822        C823   1.397       .  A
C822        H831   1.073       .  S
C823        C824   1.406       .  A
C823        S827   1.807       .  S
C824        C825   1.399       .  A
C825        C826   1.408       .  A
C825        H832   1.083       .  S
C826        S828   1.811       .  S
S827        H830   1.407       .  S
S828        H829   1.406       .  S
C833        C834   1.403       .  A
C833        C838   1.412       .  A
C834        C835   1.406       .  A
C834        H843   1.084       .  S
C835        C836   1.420       .  A
C835        S839   1.801       .  S
C836        C837   1.406       .  A
C837        C838   1.397       .  A
C837        H844   1.084       .  S
C838        S840   1.801       .  S
S839        H842   1.407       .  S
S840        H841   1.402       .  S
C845        C850   1.424       .  A
C846        H855   1.075       .  S
C847        C848   1.413       .  A
C848        C849   1.401       .  A
C849        C850   1.402       .  A
C849        H856   1.082       .  S
C850        S852   1.810       .  S
S851        H854   1.407       .  S
S852        H853   1.406       .  S
C857        C858   1.403       .  A
C857        C862   1.415       .  A
C858        C859   1.410       .  A
C858        H867   1.081       .  S
C859        C860   1.419       .  A
C859        S863   1.808       .  S
C860        C861   1.403       .  A
C861        C862   1.403       .  A
C861        H868   1.084       .  S
C862       S2768   1.795       .  S
S863        H866   1.407       .  S
S864       C2766   1.795       .  S
S864       H2769   1.400       .  S
H865       S2768   1.397       .  S
C869        C870   1.405       .  A
C870        C871   1.399       .  A
C870        H879   1.084       .  S
C871        C872   1.413       .  A
C871       S2779   1.802       .  S
C873        C874   1.403       .  A
C873        H880   1.082       .  S
C874        S876   1.803       .  S
S875       C2775   1.803       .  S
S875       H2782   1.407       .  S
S876        H877   1.407       .  S
H878       S2779   1.407       .  S
C881        C882   1.402   1_455  A
C881        C886   1.409       .  A
C882        C883   1.401       .  A
C882        H891   1.083       .  S
C883        C884   1.417   1_655  A
C883        S887   1.810       .  S
C884        C885   1.411       .  A
C885        C886   1.404       .  A
C885        H892   1.083       .  S
C886        S888   1.805       .  S
S887        H890   1.407       .  S
S888        H889   1.404       .  S
C893        C894   1.405       .  A
C893        C898   1.416       .  A
C894        C895   1.409       .  A
C894        H903   1.082       .  S
C895        C896   1.420       .  A
C895        S899   1.801       .  S
C896        C897   1.407       .  A
C897        C898   1.402       .  A
C897        H904   1.084   1_545  S
C898        S900   1.803   1_545  S
S899        H902   1.407       .  S
S900        H901   1.402       .  S
C905        C906   1.397   1_455  A
C905        C910   1.403       .  A
C906        C907   1.402       .  A
C906        H915   1.083       .  S
C907        C908   1.424   1_655  A
C907        S911   1.812       .  S
C908        C909   1.415       .  A
C909        C910   1.394       .  A
C909        H916   1.074       .  S
C910       S1864   1.808   1_545  S
S911        H914   1.407       .  S
S912       C1862   1.807       .  S
S912        H913   1.404       .  S
C917        C918   1.416       .  A
C917        C922   1.426       .  A
C918        C919   1.398       .  A
C918        H927   1.073       .  S
C919        C920   1.407       .  A
C919        S923   1.807       .  S
C920        C921   1.404       .  A
C921        C922   1.414       .  A
C921        H928   1.083       .  S
C922        S924   1.810       .  S
S923        H926   1.407       .  S
S924        H925   1.406       .  S
C929        C930   1.404       .  A
C929        C934   1.418       .  A
C930        C931   1.405       .  A
C930        H939   1.084       .  S
C931        C932   1.412       .  A
C931        S935   1.803       .  S
C932        C933   1.397       .  A
C933        C934   1.394       .  A
C933        H940   1.085       .  S
C934        S936   1.809       .  S
S935        H938   1.406       .  S
S936        H937   1.394       .  S
C941        C942   1.406       .  A
C941        C946   1.414       .  A
C942        C943   1.404       .  A
C942        H951   1.083       .  S
C943        C944   1.412       .  A
C943        S947   1.804       .  S
C944        C945   1.404       .  A
C945        C946   1.403       .  A
C945        H952   1.084       .  S
C946        S948   1.803       .  S
S947        H950   1.406       .  S
S948        H949   1.405       .  S
C953        C954   1.545       .  S
C953        C959   1.542       .  S
C953        C957   1.534       .  S
C953       C1393   1.552       .  S
C954        H961   1.079       .  S
C954        C955   1.360       .  D
C955        C956   1.535       .  S
C955       C1405   1.476       .  S
C956        C960   1.545       .  S
C956        C958   1.545       .  S
C956        H962   1.111       .  S
C957        H963   1.083       .  S
C957        C958   1.369       .  D
C958        C994   1.488       .  S
C959        H964   1.086       .  S
C959        C960   1.371       .  D
C960       C1417   1.494       .  S
C965       C2870   1.537   1_455  S
C965        C971   1.532       .  S
C965        C969   1.536       .  S
C965       C1384   1.530       .  S
C966       C2869   1.540       .  S
C966        H973   1.086       .  S
C966        C967   1.367       .  D
C967        C968   1.550       .  S
C967       C1369   1.497       .  S
C968       C2876   1.546       .  S
C968       C2874   1.559       .  S
C968        H974   1.109       .  S
C969        H975   1.080       .  S
C969        C970   1.358       .  D
C970       C2872   1.552       .  S
C970       C1042   1.478       .  S
C971        H976   1.087       .  S
C971        C972   1.361       .  D
C972       C2872   1.545       .  S
C972       C1357   1.479       .  S
C977        C978   1.532       .  S
C977       C1459   1.546   1_554  S
C977        C981   1.531       .  S
C977       C1321   1.542       .  S
C978        H985   1.087       .  S
C978        C979   1.365       .  D
C979       C1456   1.548       .  S
C979       C1348   1.486       .  S
C980       C1455   1.545       .  S
C980        C984   1.551       .  S
C980       C1458   1.549       .  S
C980        H986   1.109       .  S
C981        H987   1.086       .  S
C981        C982   1.368       .  D
C982       C1456   1.548       .  S
C982       C1018   1.487       .  S
C983       C1453   1.544       .  S
C983        H988   1.080       .  S
C983        C984   1.361       .  D
C984       C1333   1.492       .  S
C989        C990   1.527       .  S
C989        C995   1.547       .  S
C989        C993   1.529       .  S
C989       C1297   1.540       .  S
C990        H997   1.087       .  S
C990        C991   1.363       .  D
C991        C992   1.549       .  S
C991       C1285   1.489       .  S
C992        C996   1.545       .  S
C992        C994   1.556       .  S
C992        H998   1.111       .  S
C993        H999   1.085       .  S
C993        C994   1.365       .  D
C995       H1000   1.083       .  S
C995        C996   1.366       .  D
C996       C1309   1.493       .  S
C1001      C1002   1.548       .  S
C1001      C1007   1.529       .  S
C1001      C1005   1.534       .  S
C1001      C1261   1.540       .  S
C1002      H1009   1.079       .  S
C1003      C1004   1.533       .  S
C1003      C1252   1.479       .  S
C1004      C1008   1.546       .  S
C1004      C1006   1.544       .  S
C1004      H1010   1.110       .  S
C1005      H1011   1.086       .  S
C1006      C1030   1.481       .  S
C1007      H1012   1.087       .  S
C1008      C1276   1.481       .  S
C1013      C2918   1.526   1_455  S
C1013      C1019   1.532       .  S
C1013      C1017   1.536       .  S
C1013      C1240   1.531       .  S
C1014      C2917   1.529       .  S
C1014      H1021   1.087       .  S
C1014      C1015   1.361       .  D
C1015      C1016   1.546       .  S
C1015      C1225   1.476       .  S
C1016      C2924   1.555       .  S
C1016      C2922   1.546       .  S
C1016      H1022   1.110       .  S
C1017      H1023   1.081       .  S
C1017      C1018   1.366       .  D
C1018      C2920   1.549   1_455  S
C1019      H1024   1.087       .  S
C1019      C1020   1.364       .  D
C1020      C2920   1.553   1_455  S
C1020      C1216   1.490       .  S
C1025      C1026   1.530       .  S
C1025      C1031   1.546       .  S
C1025      C1029   1.532       .  S
C1025      C1189   1.536       .  S
C1026      H1033   1.087       .  S
C1026      C1503   1.359       .  D
C1027      C1028   1.544       .  S
C1027      C1502   1.361   1_554  D
C1027      C1177   1.480       .  S
C1028      C1032   1.544       .  S
C1028      C1030   1.547       .  S
C1028      H1034   1.111       .  S
C1029      H1035   1.087       .  S
C1029      C1506   1.364       .  D
C1030      C1505   1.365   1_554  D
C1031      H1036   1.080       .  S
C1031      C1508   1.365       .  D
C1032      C1507   1.362   1_554  D
C1032      C1204   1.482       .  S
C1037      C1038   1.536       .  S
C1037      C1043   1.543       .  S
C1037      C1041   1.532       .  S
C1037      C1153   1.544       .  S
C1038      H1045   1.086       .  S
C1039      C1040   1.548       .  S
C1039      C1141   1.492       .  S
C1040      C1044   1.528       .  S
C1040      C1042   1.540       .  S
C1040      H1046   1.109       .  S
C1041      H1047   1.085       .  S
C1043      H1048   1.080       .  S
C1044      C1165   1.463       .  S
Zn1049     O1053   1.950       .  S
Zn1049     O1054   2.000       .  S
Zn1049     O1534   1.993   1_554  S
Zn1049     O1065   2.009       .  S
Zn1050     O1053   1.952       .  S
Zn1050     O2959   2.007   1_455  S
Zn1050     O1057   1.987       .  S
Zn1050     O1061   1.983       .  S
Zn1051     O1053   1.955       .  S
Zn1051     O1532   2.006   1_554  S
Zn1051     O2963   2.041   1_455  S
Zn1052     O1053   1.961       .  S
Zn1052     O1063   2.009       .  S
Zn1052     O1064   2.038       .  S
O1054      C1066   1.269       .  A
O1055     Zn2954   2.016       .  S
O1055      C1067   1.272       .  A
O1056     Zn1527   1.992       .  S
O1056      C1068   1.271       .  A
O1057      C1066   1.270       .  A
O1058     Zn1525   1.992       .  S
O1058      C1068   1.271       .  A
O1059     Zn2955   2.035       .  S
O1059      C1067   1.276       .  A
O1060      C1069   1.279       .  A
O1061      C1070   1.270       .  A
O1062      C1069   1.277       .  A
O1063      C1070   1.275       .  A
O1064      C1071   1.274       .  A
O1065      C1071   1.271       .  A
C1066      C1237   1.486       .  S
C1067      C1273   1.483       .  S
C1068      C1381   1.452       .  S
C1069      C1345   1.493       .  S
C1070      C1168   1.465       .  S
C1071      C1201   1.489       .  S
Zn1072     O1076   1.978       .  S
Zn1072     O1077   2.023       .  S
Zn1072     O1081   2.061       .  S
Zn1072     O1088   2.035       .  S
Zn1073     O1078   2.044   1_545  S
Zn1074     O1076   1.956       .  S
Zn1074     O1079   2.024       .  S
Zn1074     O1085   2.008       .  S
Zn1075     O1076   1.968       .  S
Zn1075     O1083   2.009       .  S
Zn1075     O1086   2.050       .  S
Zn1075     O1087   2.028       .  S
O1077      C1089   1.275       .  A
O1078      C1090   1.275       .  A
O1079      C1091   1.274       .  A
O1080      C1089   1.275       .  A
O1081      C1091   1.277       .  A
O1082      C1090   1.273       .  A
O1083      C1092   1.274       .  A
O1084      C1093   1.274       .  A
O1085      C1092   1.273       .  A
O1086      C1093   1.274       .  A
O1087      C1094   1.275       .  A
O1088      C1094   1.275       .  A
C1089      C1249   1.482       .  S
C1090      C1396   1.482       .  S
C1091      C1372   1.495       .  S
C1092      C1192   1.470       .  S
C1093      C1144   1.504       .  S
C1094      C1288   1.476       .  S
Zn1095     O1099   1.946       .  S
Zn1095     O1100   1.976       .  S
Zn1095     O1104   2.019       .  S
Zn1095     O1111   1.999       .  S
Zn1096     O1099   1.977       .  S
Zn1096     O1101   2.022       .  S
Zn1096     O1103   2.042       .  S
Zn1096     O1583   2.034   1_554  S
Zn1097     O1099   1.963       .  S
Zn1097     O1102   2.038       .  S
Zn1097     O1105   2.008       .  S
Zn1097     O1108   2.026       .  S
Zn1098     O1575   1.957       .  S
Zn1098     O1582   2.033       .  S
Zn1098     O1109   2.036       .  S
Zn1098     O1586   2.019       .  S
O1099     Zn1574   1.959       .  S
O1100      C1112   1.268       .  A
O1101      C1113   1.274       .  A
O1102      C1114   1.273       .  A
O1103      C1112   1.276       .  A
O1104      C1114   1.274       .  A
O1105      C1113   1.274       .  A
O1106     Zn1574   2.031       .  S
O1106      C1115   1.277       .  A
O1107     Zn1572   2.038       .  S
O1107      C1116   1.276       .  A
O1108      C1115   1.275       .  A
O1109      C1116   1.275       .  A
O1110     Zn1574   2.018       .  S
O1110      C1117   1.273       .  A
O1111      C1117   1.271       .  A
C1112      C1264   1.485       .  S
C1113      C1228   1.472       .  S
C1114      C1312   1.494       .  S
C1115      C1180   1.478       .  S
C1116      C1420   1.482       .  S
C1117      C1324   1.481       .  S
Zn1118     O1122   1.966       .  S
Zn1118     O1123   2.012       .  S
Zn1118     O1127   2.030       .  S
Zn1118     O1134   2.029       .  S
Zn1119     O1122   1.965   1_655  S
Zn1119     O1124   2.027       .  S
Zn1119     O1126   2.021   1_655  S
Zn1119     O3034   2.018       .  S
Zn1120     O1122   1.958       .  S
Zn1120     O1125   2.001       .  S
Zn1120     O1128   2.027       .  S
Zn1120     O1131   2.024       .  S
Zn1121     O1122   1.965       .  S
Zn1121     O1129   2.033       .  S
Zn1121     O3036   2.018   1_455  S
Zn1121     O1133   2.046       .  S
O1123      C1135   1.273       .  A
O1124      C1136   1.273   1_655  A
O1125      C1137   1.272       .  A
O1126      C1135   1.274       .  A
O1127      C1137   1.275       .  A
O1128      C1136   1.275       .  A
O1129      C1138   1.276       .  A
O1130     Zn3023   2.017       .  S
O1130      C1139   1.274       .  A
O1131      C1138   1.275       .  A
O1132     Zn3025   2.014       .  S
O1132      C1139   1.272       .  A
O1133      C1140   1.276       .  A
O1134      C1140   1.274       .  A
C1135      C1156   1.485       .  S
C1136      C1213   1.490       .  S
C1137      C1300   1.478       .  S
C1138      C1360   1.486       .  S
C1139      C1408   1.466       .  S
C1140      C1336   1.490       .  S
C1141      C1142   1.403       .  A
C1141      C1146   1.416       .  A
C1142      C1143   1.409       .  A
C1142      H1151   1.084       .  S
C1143      C1144   1.424       .  A
C1143      S1147   1.799       .  S
C1144      C1145   1.408       .  A
C1145      C1146   1.398       .  A
C1145      H1152   1.083       .  S
S1147      H1150   1.405       .  S
S1148      H1149   1.399       .  S
C1153      C1154   1.414       .  A
C1153      C1158   1.423       .  A
C1154      C1155   1.401       .  A
C1154      H1163   1.070       .  S
C1155      C1156   1.410       .  A
C1155      S1159   1.812       .  S
C1156      C1157   1.403       .  A
C1157      C1158   1.404       .  A
C1157      H1164   1.082       .  S
C1158      S1160   1.812       .  S
S1159      H1162   1.407   1_455  S
S1160      H1161   1.406       .  S
C1165      C1166   1.399       .  A
C1165      C1170   1.411       .  A
C1166      C1167   1.395       .  A
C1166      H1175   1.083       .  S
C1167      C1168   1.413       .  A
C1167      S1171   1.804       .  S
C1168      C1169   1.401       .  A
C1169      C1170   1.393       .  A
C1169      H1176   1.084   1_455  S
C1170      S2124   1.807   1_455  S
S1171      H1174   1.407       .  S
S1172      C2122   1.806       .  S
S1172      H3077   1.401       .  S
H1173      S3076   1.402       .  S
C1177      C1178   1.401       .  A
C1177      C1182   1.413       .  A
C1178      C1179   1.401       .  A
C1178      H1187   1.079       .  S
C1179      C1180   1.413       .  A
C1179      S1183   1.804       .  S
C1180      C1181   1.403       .  A
C1181      C1182   1.401       .  A
C1181      H1188   1.084       .  S
C1182      S1660   1.804       .  S
S1183      H1186   1.407       .  S
S1184      C1658   1.807       .  S
S1184      H1185   1.400       .  S
C1189      C1190   1.412       .  A
C1189      C1194   1.426       .  A
C1190      C1191   1.394       .  A
C1190      H1199   1.074       .  S
C1191      C1192   1.407       .  A
C1192      C1193   1.398       .  A
C1193      C1194   1.402       .  A
C1193      H1200   1.083       .  S
C1194      S1196   1.812       .  S
S1195      H1198   1.407       .  S
S1196      H1197   1.406       .  S
C1201      C1202   1.407       .  A
C1201      C1682   1.416       .  A
C1202      C1203   1.404       .  A
C1202      H1211   1.084       .  S
C1203      C1204   1.413       .  A
C1203      S1207   1.802       .  S
C1204      C1681   1.400       .  A
C1205      C1680   1.402       .  A
C1205      C1206   1.408       .  A
C1205      H1212   1.077       .  S
C1206      C1677   1.414       .  A
C1206      S1208   1.806       .  S
S1207      H1210   1.403       .  S
S1208      H1209   1.407       .  S
C1213      C1214   1.405       .  A
C1213      C3122   1.418   1_455  A
C1214      C1215   1.400       .  A
C1214      H1223   1.084       .  S
C1215      C1216   1.414       .  A
C1215      S1219   1.803       .  S
C1216      C3121   1.401   1_455  A
C1217      C3120   1.402       .  A
C1217      C1218   1.406       .  A
C1217      H1224   1.077       .  S
C1218      C3117   1.420       .  A
C1218      S1220   1.802       .  S
S1219      H1222   1.404       .  S
S1220      H1221   1.407       .  S
C1225      C1226   1.398       .  A
C1225      C1230   1.414       .  A
C1226      C1227   1.395       .  A
C1226      H1235   1.078       .  S
C1227      C1228   1.413       .  A
C1227      S1231   1.805       .  S
C1228      C1229   1.402       .  A
C1229      C1230   1.401       .  A
C1229      H1236   1.084   1_554  S
C1230      S1232   1.802   1_554  S
S1231      H1234   1.407       .  S
S1232      H1233   1.402       .  S
C1237      C3142   1.406   1_455  A
C1237      C1242   1.415       .  A
C1238      C3141   1.404       .  A
C1238      C1239   1.399       .  A
C1238      H1247   1.082       .  S
C1239      C3144   1.422       .  A
C1239      S1243   1.814       .  S
C1240      C3143   1.420   1_455  A
C1240      C1241   1.410       .  A
C1241      C1242   1.399       .  A
C1241      H1248   1.074       .  S
C1242      S1244   1.812   1_554  S
S1243      H1246   1.407       .  S
S1244      H1245   1.407       .  S
C1249      C1254   1.417       .  A
C1250      C1251   1.397       .  A
C1250      H1259   1.084       .  S
C1251      S1255   1.805   1_545  S
C1252      C1253   1.400       .  A
C1253      C1254   1.399       .  A
C1253      H1260   1.081       .  S
C1254      S1256   1.802       .  S
S1255      H1258   1.407   1_565  S
S1256      H1257   1.407       .  S
C1261      C1262   1.409       .  A
C1261      C1266   1.426       .  A
C1262      C1263   1.393       .  A
C1262      H1271   1.072       .  S
C1263      C1264   1.414       .  A
C1263      S1267   1.807       .  S
C1264      C1265   1.403       .  A
C1265      C1266   1.407       .  A
C1265      H1272   1.082   1_554  S
C1266      S1744   1.812   1_554  S
S1267      H1270   1.408       .  S
S1268      C1742   1.811       .  S
S1268      H1745   1.407       .  S
H1269      S1744   1.406       .  S
C1273      C1274   1.404       .  A
C1274      C1275   1.400       .  A
C1274      H1283   1.084       .  S
C1275      C1276   1.410       .  A
C1275      S1279   1.799   1_554  S
C1277      C1278   1.403       .  A
C1277      H1284   1.082       .  S
C1278      S1280   1.804       .  S
S1279      H1282   1.404       .  S
S1280      H1281   1.407   1_545  S
C1285      C1286   1.405       .  A
C1285      C1290   1.419       .  A
C1286      C1287   1.409       .  A
C1286      H1295   1.084       .  S
C1287      C1288   1.415       .  A
C1287      S1291   1.804       .  S
C1288      C1289   1.398       .  A
C1289      C1290   1.396       .  A
C1289      H1296   1.085       .  S
C1290      S1292   1.806       .  S
S1291      H1294   1.404       .  S
S1292      H1293   1.399       .  S
C1297      C1298   1.412       .  A
C1297      C1302   1.428       .  A
C1298      C1299   1.395       .  A
C1298      H1307   1.079       .  S
C1299      C1300   1.410       .  A
C1299      S1303   1.806       .  S
C1300      C1301   1.400       .  A
C1301      C1302   1.402       .  A
C1301      H1308   1.084       .  S
C1302      S1304   1.806       .  S
S1303      H1306   1.407       .  S
S1304      H1305   1.401       .  S
C1309      C1310   1.404       .  A
C1309      C1314   1.413       .  A
C1310      C1311   1.408       .  A
C1310      H1319   1.084       .  S
C1311      C1312   1.421       .  A
C1311      S1315   1.801       .  S
C1312      C1313   1.406       .  A
C1313      C1314   1.398       .  A
C1313      H1320   1.084       .  S
C1314      S1316   1.801       .  S
S1315      H1318   1.408       .  S
S1316      H1317   1.401       .  S
C1321      C1798   1.414   1_554  A
C1321      C1326   1.423       .  A
C1322      C1797   1.413       .  A
C1322      C1799   1.401       .  A
C1322      H1331   1.072       .  S
C1323      C1798   1.402       .  A
C1323      C1324   1.410   1_556  A
C1323      S1803   1.812       .  S
C1324      C1325   1.401       .  A
C1325      C1326   1.402       .  A
C1325      H1332   1.083       .  S
C1326      S1328   1.811       .  S
S1327      C1799   1.812       .  S
S1327      H1330   1.406       .  S
S1328      H1329   1.407       .  S
C1333      C1334   1.403       .  A
C1333      C1338   1.414       .  A
C1334      C1335   1.410       .  A
C1334      H1343   1.081       .  S
C1335      C1336   1.417       .  A
C1335      S1339   1.808       .  S
C1336      C1337   1.402       .  A
C1337      C1338   1.402       .  A
C1337      H1344   1.084       .  S
C1338      S3244   1.796       .  S
S1339      H1342   1.407       .  S
S1340      C3242   1.794       .  S
S1340      H3245   1.401       .  S
H1341      S3244   1.401       .  S
C1345      C1346   1.407       .  A
C1345      C1826   1.419   1_554  A
C1346      C1347   1.405       .  A
C1346      H1355   1.084       .  S
C1347      C1348   1.414       .  A
C1347      S3255   1.804       .  S
C1348      C1825   1.400   1_554  A
C1349      C1824   1.400       .  A
C1349      C1350   1.403       .  A
C1349      H1356   1.082       .  S
C1350      C1821   1.421       .  A
C1350      S1352   1.803       .  S
S1351      C3251   1.804       .  S
S1351      H3258   1.406       .  S
S1352      H1353   1.408       .  S
H1354      S3255   1.406       .  S
C1357      C1358   1.403   1_455  A
C1357      C1362   1.412       .  A
C1358      C1359   1.403       .  A
C1358      H1367   1.083       .  S
C1359      C1360   1.414   1_655  A
C1359      S1363   1.808       .  S
C1360      C1361   1.407       .  A
C1361      C1362   1.403       .  A
C1361      H1368   1.084       .  S
C1362      S1364   1.807       .  S
S1363      H1366   1.407       .  S
S1364      H1365   1.399       .  S
C1369      C1370   1.405       .  A
C1369      C1374   1.413       .  A
C1370      C1371   1.409       .  A
C1370      H1379   1.082       .  S
C1371      C1372   1.418       .  A
C1371      S1375   1.802       .  S
C1372      C1373   1.407       .  A
C1373      C1374   1.402       .  A
C1373      H1380   1.084       .  S
C1374      S1376   1.801       .  S
S1375      H1378   1.407       .  S
S1376      H1377   1.404       .  S
C1381      C1382   1.394       .  A
C1381      C1386   1.401       .  A
C1382      C1383   1.398       .  A
C1382      H1391   1.083   1_455  S
C1383      C1384   1.425       .  A
C1383      S1387   1.814   1_455  S
C1384      C1385   1.415       .  A
C1385      C1386   1.392       .  A
C1385      H1392   1.073       .  S
S1387      H1390   1.406       .  S
S1388      H1389   1.406   1_545  S
C1393      C1394   1.416       .  A
C1393      C1398   1.427       .  A
C1394      C1395   1.397       .  A
C1394      H1403   1.072       .  S
C1395      C1396   1.406       .  A
C1395      S1399   1.807       .  S
C1396      C1397   1.402       .  A
C1397      C1398   1.412       .  A
C1397      H1404   1.083       .  S
C1398      S1400   1.810       .  S
S1399      H1402   1.407       .  S
S1400      H1401   1.406       .  S
C1405      C1406   1.403       .  A
C1405      C1410   1.418       .  A
C1406      C1407   1.403       .  A
C1406      H1415   1.084       .  S
C1407      C1408   1.411       .  A
C1407      S1411   1.803       .  S
C1408      C1409   1.397       .  A
C1409      C1410   1.394       .  A
C1409      H1416   1.085       .  S
C1410      S1412   1.809       .  S
S1411      H1414   1.406       .  S
S1412      H1413   1.396       .  S
C1417      C1418   1.407       .  A
C1417      C1422   1.415       .  A
C1418      C1419   1.404       .  A
C1418      H1427   1.083       .  S
C1419      C1420   1.412       .  A
C1419      S1423   1.804       .  S
C1420      C1421   1.404       .  A
C1421      C1422   1.404       .  A
C1421      H1428   1.084       .  S
C1422      S1424   1.803       .  S
S1423      H1426   1.406       .  S
S1424      H1425   1.404       .  S
C1429      C1430   1.545       .  S
C1429      C1435   1.541       .  S
C1429      C1433   1.536       .  S
C1429      C1869   1.555       .  S
C1430      H1437   1.081       .  S
C1430      C1431   1.360       .  D
C1431      C1432   1.537       .  S
C1431      C1881   1.478       .  S
C1432      C1436   1.541       .  S
C1432      C1434   1.542       .  S
C1432      H1438   1.111       .  S
C1433      H1439   1.083       .  S
C1433      C1434   1.370       .  D
C1434      C1470   1.486       .  S
C1435      H1440   1.086       .  S
C1435      C1436   1.373       .  D
C1436      C1893   1.491       .  S
C1441      C3346   1.540   1_455  S
C1441      C1447   1.529       .  S
C1441      C1445   1.536       .  S
C1441      C1860   1.533       .  S
C1442      C3345   1.539       .  S
C1442      H1449   1.086       .  S
C1442      C1443   1.366       .  D
C1443      C1444   1.549       .  S
C1443      C1845   1.498       .  S
C1444      C3352   1.543       .  S
C1444      C3350   1.555       .  S
C1444      H1450   1.109       .  S
C1445      H1451   1.081       .  S
C1445      C1446   1.360       .  D
C1446      C3348   1.552       .  S
C1446      C1518   1.480       .  S
C1447      H1452   1.087       .  S
C1447      C1448   1.361       .  D
C1448      C3348   1.544       .  S
C1448      C1833   1.478       .  S
C1453      C1454   1.532       .  S
C1453      C1457   1.528       .  S
C1453      C1797   1.540       .  S
C1454      H1461   1.086       .  S
C1454      C1455   1.367       .  D
C1455      C1824   1.482       .  S
C1456      C1460   1.550   1_554  S
C1456      H1462   1.109       .  S
C1457      H1463   1.087       .  S
C1457      C1458   1.365       .  D
C1458      C1494   1.485       .  S
C1459      H1464   1.081       .  S
C1459      C1460   1.362       .  D
C1460      C1809   1.491       .  S
C1465      C1466   1.532       .  S
C1465      C1471   1.548       .  S
C1465      C1469   1.529       .  S
C1465      C1773   1.541       .  S
C1466      H1473   1.087       .  S
C1466      C1467   1.364       .  D
C1467      C1468   1.549       .  S
C1467      C1761   1.491       .  S
C1468      C1472   1.540       .  S
C1468      C1470   1.550       .  S
C1468      H1474   1.111       .  S
C1469      H1475   1.086       .  S
C1469      C1470   1.365       .  D
C1471      H1476   1.079       .  S
C1471      C1472   1.366       .  D
C1472      C1785   1.486       .  S
C1477      C1478   1.546       .  S
C1477      C1483   1.528       .  S
C1477      C1481   1.532       .  S
C1477      C1737   1.537       .  S
C1478      H1485   1.080       .  S
C1479      C1480   1.535       .  S
C1479      C1728   1.479       .  S
C1480      C1484   1.548       .  S
C1480      C1482   1.545       .  S
C1480      H1486   1.109       .  S
C1481      H1487   1.086       .  S
C1482      C1506   1.484       .  S
C1483      H1488   1.087       .  S
C1484      C1752   1.481       .  S
C1489      C3394   1.531   1_455  S
C1489      C1495   1.530       .  S
C1489      C1493   1.534       .  S
C1489      C1716   1.532       .  S
C1490      C3393   1.528       .  S
C1490      H1497   1.087       .  S
C1490      C1491   1.359       .  D
C1491      C1492   1.547       .  S
C1491      C1701   1.475       .  S
C1492      C3400   1.552       .  S
C1492      C3398   1.548       .  S
C1492      H1498   1.110       .  S
C1493      H1499   1.079       .  S
C1493      C1494   1.364       .  D
C1494      C3396   1.550       .  S
C1495      H1500   1.087       .  S
C1495      C1496   1.363       .  D
C1496      C3396   1.552       .  S
C1496      C1692   1.492       .  S
C1501      C1502   1.530       .  S
C1501      C1507   1.545       .  S
C1501      C1505   1.534       .  S
C1501      C1665   1.536       .  S
C1502      H1509   1.087       .  S
C1503      C1504   1.547       .  S
C1503      C1653   1.481       .  S
C1504      C1508   1.547       .  S
C1504      C1506   1.551       .  S
C1504      H1510   1.110       .  S
C1505      H1511   1.087       .  S
C1507      H1512   1.080       .  S
C1508      C1680   1.491       .  S
C1513      C1514   1.536       .  S
C1513      C1519   1.543       .  S
C1513      C1517   1.530       .  S
C1513      C1629   1.542       .  S
C1514      H1521   1.086       .  S
C1515      C1516   1.545       .  S
C1515      C1617   1.491       .  S
C1516      C1520   1.528       .  S
C1516      C1518   1.544       .  S
C1516      H1522   1.107       .  S
C1517      H1523   1.085       .  S
C1519      H1524   1.080       .  S
C1520      C1641   1.464       .  S
Zn1525     O1529   1.955       .  S
Zn1525     O1530   2.002       .  S
Zn1525     O1541   2.028       .  S
Zn1526     O1529   1.949       .  S
Zn1526     O3435   2.008   1_455  S
Zn1526     O1533   1.984       .  S
Zn1526     O1537   1.971       .  S
Zn1527     O1529   1.957       .  S
Zn1527     O3439   2.032   1_455  S
Zn1528     O1529   1.956       .  S
Zn1528     O1539   2.017       .  S
Zn1528     O1540   2.033       .  S
O1530      C1542   1.269       .  A
O1531     Zn3430   2.014       .  S
O1531      C1543   1.271       .  A
O1532      C1544   1.272       .  A
O1533      C1542   1.269       .  A
O1534      C1544   1.271       .  A
O1535     Zn3431   2.023       .  S
O1535      C1543   1.273       .  A
O1536      C1545   1.278       .  A
O1537      C1546   1.269       .  A
O1538      C1545   1.274       .  A
O1539      C1546   1.275       .  A
O1540      C1547   1.274       .  A
O1541      C1547   1.274       .  A
C1542      C1713   1.484       .  S
C1543      C1749   1.483       .  S
C1544      C1857   1.457       .  S
C1545      C1821   1.489       .  S
C1546      C1644   1.464       .  S
C1547      C1677   1.484       .  S
Zn1548     O1552   1.979       .  S
Zn1548     O1553   2.018       .  S
Zn1548     O1557   2.062       .  S
Zn1548     O1564   2.045       .  S
Zn1549     O1554   2.057   1_545  S
Zn1550     O1552   1.959       .  S
Zn1550     O1555   2.028       .  S
Zn1550     O1561   2.005       .  S
Zn1551     O1552   1.968       .  S
Zn1551     O1559   2.004       .  S
Zn1551     O1562   2.041       .  S
Zn1551     O1563   2.028       .  S
O1553      C1565   1.275       .  A
O1554      C1566   1.277       .  A
O1555      C1567   1.275       .  A
O1556      C1565   1.277       .  A
O1557      C1567   1.277       .  A
O1558      C1566   1.273       .  A
O1559      C1568   1.273       .  A
O1560      C1569   1.276       .  A
O1561      C1568   1.273       .  A
O1562      C1569   1.273       .  A
O1563      C1570   1.274       .  A
O1564      C1570   1.276       .  A
C1565      C1725   1.481       .  S
C1566      C1872   1.489       .  S
C1567      C1848   1.498       .  S
C1568      C1668   1.470       .  S
C1569      C1620   1.505       .  S
C1570      C1764   1.479       .  S
Zn1571     O1575   1.947       .  S
Zn1571     O1576   1.973       .  S
Zn1571     O1580   2.002       .  S
Zn1571     O1587   1.990       .  S
Zn1572     O1575   1.972       .  S
Zn1572     O1577   2.020       .  S
Zn1572     O1579   2.035       .  S
Zn1573     O1575   1.966       .  S
Zn1573     O1578   2.036       .  S
Zn1573     O1581   2.015       .  S
Zn1573     O1584   2.032       .  S
Zn1574     O1585   2.035   1_554  S
O1576      C1588   1.266       .  A
O1577      C1589   1.274       .  A
O1578      C1590   1.273       .  A
O1579      C1588   1.275       .  A
O1580      C1590   1.272       .  A
O1581      C1589   1.275       .  A
O1582      C1591   1.278       .  A
O1583      C1592   1.275       .  A
O1584      C1591   1.276       .  A
O1585      C1592   1.275       .  A
O1586      C1593   1.272       .  A
O1587      C1593   1.269       .  A
C1588      C1740   1.485       .  S
C1589      C1704   1.478       .  S
C1590      C1788   1.488       .  S
C1591      C1656   1.484       .  S
C1592      C1896   1.479       .  S
C1593      C1800   1.481       .  S
Zn1594     O1598   1.964       .  S
Zn1594     O1599   2.008       .  S
Zn1594     O1603   2.026       .  S
Zn1594     O1610   2.022       .  S
Zn1595     O1598   1.964   1_655  S
Zn1595     O1600   2.030       .  S
Zn1595     O1602   2.015   1_655  S
Zn1595     O3510   2.021       .  S
Zn1596     O1598   1.958       .  S
Zn1596     O1601   2.000       .  S
Zn1596     O1604   2.034       .  S
Zn1596     O1607   2.024       .  S
Zn1597     O1598   1.963   1_655  S
Zn1597     O1605   2.021   1_655  S
Zn1597     O3512   2.013       .  S
Zn1597     O1609   2.053   1_655  S
O1599      C1611   1.273       .  A
O1600      C1612   1.273   1_655  A
O1601      C1613   1.272       .  A
O1602      C1611   1.274       .  A
O1603      C1613   1.274       .  A
O1604      C1612   1.275       .  A
O1605      C1614   1.275       .  A
O1606     Zn3499   2.022       .  S
O1606      C1615   1.274       .  A
O1607      C1614   1.275       .  A
O1608     Zn3501   2.020       .  S
O1608      C1615   1.274       .  A
O1609      C1616   1.277       .  A
O1610      C1616   1.273       .  A
C1611      C1632   1.479       .  S
C1612      C1689   1.494       .  S
C1613      C1776   1.470       .  S
C1614      C1836   1.483       .  S
C1615      C1884   1.473       .  S
C1616      C1812   1.490       .  S
C1617      C1618   1.401       .  A
C1617      C1622   1.416       .  A
C1618      C1619   1.407       .  A
C1618      H1627   1.084       .  S
C1619      C1620   1.424       .  A
C1619      S1623   1.798       .  S
C1620      C1621   1.408       .  A
C1621      C1622   1.400       .  A
C1621      H1628   1.083       .  S
S1623      H1626   1.404       .  S
S1624      H1625   1.402       .  S
C1629      C1630   1.414       .  A
C1629      C1634   1.425       .  A
C1630      C1631   1.400       .  A
C1630      H1639   1.070       .  S
C1631      C1632   1.408       .  A
C1631      S1635   1.813       .  S
C1632      C1633   1.401       .  A
C1633      C1634   1.404       .  A
C1633      H1640   1.083       .  S
C1634      S1636   1.812       .  S
S1635      H1638   1.406       .  S
S1636      H1637   1.407       .  S
C1641      C1642   1.400       .  A
C1641      C1646   1.410       .  A
C1642      C1643   1.396       .  A
C1642      H1651   1.083       .  S
C1643      C1644   1.412       .  A
C1643      S1647   1.804       .  S
C1644      C1645   1.402       .  A
C1645      C1646   1.392       .  A
C1645      H1652   1.084   1_455  S
C1646      S2600   1.806   1_455  S
S1647      H1650   1.407       .  S
S1648      C2598   1.806       .  S
S1648      H3553   1.402       .  S
H1649      S3552   1.404       .  S
C1653      C1654   1.402       .  A
C1653      C1658   1.415       .  A
C1654      C1655   1.399       .  A
C1654      H1663   1.080       .  S
C1655      C1656   1.413       .  A
C1655      S1659   1.804       .  S
C1656      C1657   1.405       .  A
C1657      C1658   1.405       .  A
C1657      H1664   1.084       .  S
S1659      H1662   1.407       .  S
S1660      H1661   1.403       .  S
C1665      C1666   1.412       .  A
C1665      C1670   1.425       .  A
C1666      C1667   1.393       .  A
C1666      H1675   1.073       .  S
C1667      C1668   1.407       .  A
C1668      C1669   1.398       .  A
C1669      C1670   1.401       .  A
C1669      H1676   1.083       .  S
C1670      S1672   1.809       .  S
S1671      H1674   1.407       .  S
S1672      H1673   1.406       .  S
C1677      C1678   1.402       .  A
C1678      C1679   1.401       .  A
C1678      H1687   1.084       .  S
C1679      C1680   1.414       .  A
C1679      S1683   1.799       .  S
C1681      C1682   1.402       .  A
C1681      H1688   1.079       .  S
C1682      S1684   1.809       .  S
S1683      H1686   1.403       .  S
S1684      H1685   1.407       .  S
C1689      C1690   1.407       .  A
C1689      C3598   1.419   1_455  A
C1690      C1691   1.402       .  A
C1690      H1699   1.084       .  S
C1691      C1692   1.413       .  A
C1691      S1695   1.804       .  S
C1692      C3597   1.402   1_455  A
C1693      C3596   1.402       .  A
C1693      C1694   1.407       .  A
C1693      H1700   1.079       .  S
C1694      C3593   1.420       .  A
C1694      S1696   1.802       .  S
S1695      H1698   1.406       .  S
S1696      H1697   1.408       .  S
C1701      C1702   1.400       .  A
C1701      C1706   1.413       .  A
C1702      C1703   1.396       .  A
C1702      H1711   1.080       .  S
C1703      C1704   1.414       .  A
C1703      S1707   1.804       .  S
C1704      C1705   1.404       .  A
C1705      C1706   1.401       .  A
C1705      H1712   1.084       .  S
C1706      S1708   1.804       .  S
S1707      H1710   1.407       .  S
S1708      H1709   1.398       .  S
C1713      C3618   1.405       .  A
C1713      C1718   1.413       .  A
C1714      C3617   1.404       .  A
C1714      C1715   1.398       .  A
C1714      H1723   1.082       .  S
C1715      C3620   1.423       .  A
C1715      S1719   1.815       .  S
C1716      C3619   1.422   1_455  A
C1716      C1717   1.411       .  A
C1717      C1718   1.394       .  A
C1717      H1724   1.074       .  S
C1718      S1720   1.804       .  S
S1719      H1722   1.406       .  S
S1720      H1721   1.407       .  S
C1725      C1730   1.417       .  A
C1726      C1727   1.397       .  A
C1726      H1735   1.084       .  S
C1727      S1731   1.805       .  S
C1728      C1729   1.399       .  A
C1729      C1730   1.399       .  A
C1729      H1736   1.078       .  S
C1730      S1732   1.803       .  S
S1731      H1734   1.407       .  S
S1732      H1733   1.408       .  S
C1737      C1738   1.408       .  A
C1737      C1742   1.424       .  A
C1738      C1739   1.394       .  A
C1738      H1747   1.074       .  S
C1739      C1740   1.416       .  A
C1739      S1743   1.806       .  S
C1740      C1741   1.403       .  A
C1741      C1742   1.404       .  A
C1741      H1748   1.082       .  S
S1743      H1746   1.408       .  S
C1749      C1750   1.405       .  A
C1750      C1751   1.400       .  A
C1750      H1759   1.084       .  S
C1751      C1752   1.412       .  A
C1751      S1755   1.801       .  S
C1753      C1754   1.400       .  A
C1753      H1760   1.081       .  S
C1754      S1756   1.804       .  S
S1755      H1758   1.403       .  S
S1756      H1757   1.407   1_545  S
C1761      C1762   1.405       .  A
C1761      C1766   1.420       .  A
C1762      C1763   1.409       .  A
C1762      H1771   1.084       .  S
C1763      C1764   1.415       .  A
C1763      S1767   1.803       .  S
C1764      C1765   1.399       .  A
C1765      C1766   1.399       .  A
C1765      H1772   1.084       .  S
C1766      S1768   1.806       .  S
S1767      H1770   1.404       .  S
S1768      H1769   1.399       .  S
C1773      C1774   1.413       .  A
C1773      C1778   1.427       .  A
C1774      C1775   1.394       .  A
C1774      H1783   1.073       .  S
C1775      C1776   1.406       .  A
C1775      S1779   1.808       .  S
C1776      C1777   1.398       .  A
C1777      C1778   1.406       .  A
C1777      H1784   1.083       .  S
C1778      S1780   1.812       .  S
S1779      H1782   1.407       .  S
S1780      H1781   1.406       .  S
C1785      C1786   1.402       .  A
C1785      C1790   1.412       .  A
C1786      C1787   1.404       .  A
C1786      H1795   1.084       .  S
C1787      C1788   1.418       .  A
C1787      S1791   1.801       .  S
C1788      C1789   1.405       .  A
C1789      C1790   1.396       .  A
C1789      H1796   1.084       .  S
C1790      S1792   1.801       .  S
S1791      H1794   1.408       .  S
S1792      H1793   1.401       .  S
C1797      C1802   1.423       .  A
C1798      H1807   1.073       .  S
C1799      C1800   1.410       .  A
C1800      C1801   1.402       .  A
C1801      C1802   1.402       .  A
C1801      H1808   1.082       .  S
C1802      S1804   1.811       .  S
S1803      H1806   1.406       .  S
S1804      H1805   1.406       .  S
C1809      C1810   1.401       .  A
C1809      C1814   1.415       .  A
C1810      C1811   1.408       .  A
C1810      H1819   1.080       .  S
C1811      C1812   1.417       .  A
C1811      S1815   1.808       .  S
C1812      C1813   1.403       .  A
C1813      C1814   1.403       .  A
C1813      H1820   1.084       .  S
C1814      S3720   1.796       .  S
S1815      H1818   1.407       .  S
S1816      C3718   1.797       .  S
S1816      H3721   1.399       .  S
H1817      S3720   1.399       .  S
C1821      C1822   1.405       .  A
C1822      C1823   1.400       .  A
C1822      H1831   1.084       .  S
C1823      C1824   1.412       .  A
C1823      S3731   1.803       .  S
C1825      C1826   1.403       .  A
C1825      H1832   1.081       .  S
C1826      S1828   1.803       .  S
S1827      C3727   1.803       .  S
S1827      H3734   1.407       .  S
S1828      H1829   1.407       .  S
H1830      S3731   1.406       .  S
C1833      C1834   1.402   1_455  A
C1833      C1838   1.409       .  A
C1834      C1835   1.402       .  A
C1834      H1843   1.083       .  S
C1835      C1836   1.415   1_655  A
C1835      S1839   1.809       .  S
C1836      C1837   1.406       .  A
C1837      C1838   1.400       .  A
C1837      H1844   1.084       .  S
C1838      S1840   1.800       .  S
S1839      H1842   1.407       .  S
S1840      H1841   1.399       .  S
C1845      C1846   1.405       .  A
C1845      C1850   1.413       .  A
C1846      C1847   1.410       .  A
C1846      H1855   1.082       .  S
C1847      C1848   1.419       .  A
C1847      S1851   1.801       .  S
C1848      C1849   1.406       .  A
C1849      C1850   1.401       .  A
C1849      H1856   1.084       .  S
C1850      S1852   1.800       .  S
S1851      H1854   1.407       .  S
S1852      H1853   1.402       .  S
C1857      C1858   1.396   1_455  A
C1857      C1862   1.403       .  A
C1858      C1859   1.400       .  A
C1858      H1867   1.083       .  S
C1859      C1860   1.424   1_655  A
C1859      S1863   1.813       .  S
C1860      C1861   1.415       .  A
C1861      C1862   1.394       .  A
C1861      H1868   1.075       .  S
S1863      H1866   1.406       .  S
S1864      H1865   1.403       .  S
C1869      C1870   1.415       .  A
C1869      C1874   1.426       .  A
C1870      C1871   1.399       .  A
C1870      H1879   1.075       .  S
C1871      C1872   1.409       .  A
C1871      S1875   1.806       .  S
C1872      C1873   1.404       .  A
C1873      C1874   1.414       .  A
C1873      H1880   1.083       .  S
C1874      S1876   1.810       .  S
S1875      H1878   1.407       .  S
S1876      H1877   1.406       .  S
C1881      C1882   1.404       .  A
C1881      C1886   1.418       .  A
C1882      C1883   1.404       .  A
C1882      H1891   1.084       .  S
C1883      C1884   1.412       .  A
C1883      S1887   1.803       .  S
C1884      C1885   1.398       .  A
C1885      C1886   1.395       .  A
C1885      H1892   1.085       .  S
C1886      S1888   1.810       .  S
S1887      H1890   1.406       .  S
S1888      H1889   1.394       .  S
C1893      C1894   1.405       .  A
C1893      C1898   1.414       .  A
C1894      C1895   1.403       .  A
C1894      H1903   1.082       .  S
C1895      C1896   1.412       .  A
C1895      S1899   1.803       .  S
C1896      C1897   1.404       .  A
C1897      C1898   1.402       .  A
C1897      H1904   1.084       .  S
C1898      S1900   1.803       .  S
S1899      H1902   1.406       .  S
S1900      H1901   1.404       .  S
C1905      C1906   1.544       .  S
C1905      C1911   1.542       .  S
C1905      C1909   1.534       .  S
C1905      C2345   1.553       .  S
C1906      H1913   1.079       .  S
C1906      C1907   1.360       .  D
C1907      C1908   1.537       .  S
C1907      C2357   1.474       .  S
C1908      C1912   1.547       .  S
C1908      C1910   1.544       .  S
C1908      H1914   1.111       .  S
C1909      H1915   1.083       .  S
C1909      C1910   1.367       .  D
C1910      C1946   1.488       .  S
C1911      H1916   1.086       .  S
C1911      C1912   1.373       .  D
C1912      C2369   1.498       .  S
C1917      C1923   1.528       .  S
C1917      C1921   1.535       .  S
C1917      C2336   1.531       .  S
C1918      H1925   1.085       .  S
C1918      C1919   1.368       .  D
C1919      C1920   1.546   1_655  S
C1919      C2321   1.494       .  S
C1920      H1926   1.109       .  S
C1921      H1927   1.082       .  S
C1921      C1922   1.360       .  D
C1922      C1994   1.484       .  S
C1923      H1928   1.087       .  S
C1923      C1924   1.360       .  D
C1924      C2309   1.481       .  S
C1929      C1930   1.533       .  S
C1929      C2411   1.546   1_554  S
C1929      C1933   1.527       .  S
C1929      C2273   1.541       .  S
C1930      H1937   1.086       .  S
C1930      C1931   1.367       .  D
C1931      C2408   1.547       .  S
C1931      C2300   1.485       .  S
C1932      C2407   1.549       .  S
C1932      C1936   1.554       .  S
C1932      C2410   1.550       .  S
C1932      H1938   1.109       .  S
C1933      H1939   1.087       .  S
C1933      C1934   1.365       .  D
C1934      C2408   1.547       .  S
C1934      C1970   1.485       .  S
C1935      C2405   1.545       .  S
C1935      H1940   1.081       .  S
C1935      C1936   1.363       .  D
C1936      C2285   1.497       .  S
C1941      C1942   1.530       .  S
C1941      C1947   1.547       .  S
C1941      C1945   1.531       .  S
C1941      C2249   1.544       .  S
C1942      H1949   1.087       .  S
C1942      C1943   1.366       .  D
C1943      C1944   1.550       .  S
C1943      C2237   1.494       .  S
C1944      C1948   1.544       .  S
C1944      C1946   1.556       .  S
C1944      H1950   1.111       .  S
C1945      H1951   1.087       .  S
C1945      C1946   1.366       .  D
C1947      H1952   1.080       .  S
C1947      C1948   1.364       .  D
C1948      C2261   1.491       .  S
C1953      C1954   1.548       .  S
C1953      C1959   1.527       .  S
C1953      C1957   1.531       .  S
C1953      C2213   1.538       .  S
C1954      H1961   1.080       .  S
C1954      C2907   1.369       .  D
C1955      C1956   1.535       .  S
C1955      C2906   1.367   1_545  D
C1955      C2204   1.480       .  S
C1956      C1960   1.546   1_545  S
C1956      C1958   1.544       .  S
C1956      H1962   1.110       .  S
C1957      H1963   1.086       .  S
C1957      C2910   1.365       .  D
C1958      C2909   1.368   1_545  D
C1958      C1982   1.481       .  S
C1959      H1964   1.087       .  S
C1959      C2912   1.357       .  D
C1960      C2911   1.358       .  D
C1960      C2228   1.480   1_565  S
C1965      C1971   1.532       .  S
C1965      C1969   1.534       .  S
C1965      C2192   1.535       .  S
C1966      H1973   1.087       .  S
C1966      C1967   1.364       .  D
C1967      C1968   1.546   1_655  S
C1967      C2177   1.476       .  S
C1968      H1974   1.111   1_455  S
C1969      H1975   1.078       .  S
C1969      C1970   1.364       .  D
C1971      H1976   1.087       .  S
C1971      C1972   1.363       .  D
C1972      C2168   1.490       .  S
C1977      C1978   1.532       .  S
C1977      C1983   1.546       .  S
C1977      C1981   1.530       .  S
C1977      C2141   1.534       .  S
C1978      H1985   1.087       .  S
C1978      C2455   1.360       .  D
C1979      C1980   1.546       .  S
C1979      C2454   1.363   1_554  D
C1979      C2129   1.482       .  S
C1980      C1984   1.545       .  S
C1980      C1982   1.548       .  S
C1980      H1986   1.111       .  S
C1981      H1987   1.087       .  S
C1981      C2458   1.363       .  D
C1982      C2457   1.364   1_554  D
C1983      H1988   1.080       .  S
C1983      C2460   1.362       .  D
C1984      C2459   1.361   1_554  D
C1984      C2156   1.483       .  S
C1989      C1990   1.533       .  S
C1989      C1995   1.542       .  S
C1989      C1993   1.532       .  S
C1989      C2105   1.541       .  S
C1990      H1997   1.086       .  S
C1990      C2943   1.365       .  D
C1991      C1992   1.549       .  S
C1991      C2942   1.365   1_545  D
C1991      C2093   1.494       .  S
C1992      C1996   1.530       .  S
C1992      C1994   1.544       .  S
C1992      H1998   1.109       .  S
C1993      H1999   1.085       .  S
C1993      C2946   1.370       .  D
C1994      C2945   1.368   1_545  D
C1995      H2000   1.080       .  S
C1995      C2948   1.361       .  D
C1996      C2947   1.362   1_545  D
C1996      C2117   1.466       .  S
Zn2001     O2005   1.953       .  S
Zn2001     O2006   2.004       .  S
Zn2001     O2486   1.995   1_554  S
Zn2001     O2017   2.020       .  S
Zn2002     O2005   1.955       .  S
Zn2002     O2009   1.988       .  S
Zn2002     O2013   1.979       .  S
Zn2003     O2005   1.959       .  S
Zn2003     O2484   2.015   1_554  S
Zn2003     O2966   2.030   1_545  S
Zn2004     O2005   1.965       .  S
Zn2004     O2964   2.039   1_545  S
Zn2004     O2015   2.015       .  S
Zn2004     O2016   2.042       .  S
O2006      C2018   1.270       .  A
O2007      C2019   1.270       .  A
O2008     Zn2479   1.998       .  S
O2008      C2020   1.271       .  A
O2009      C2018   1.270       .  A
O2010     Zn2477   1.996       .  S
O2010      C2020   1.271       .  A
O2011      C2019   1.276       .  A
O2012     Zn2956   2.039       .  S
O2012      C2021   1.278       .  A
O2013      C2022   1.270       .  A
O2014     Zn2955   2.030       .  S
O2014      C2021   1.276       .  A
O2015      C2022   1.274       .  A
O2016      C2023   1.275       .  A
O2017      C2023   1.272       .  A
C2018      C2189   1.486       .  S
C2019      C2225   1.482       .  S
C2020      C2333   1.457       .  S
C2021      C2297   1.490       .  S
C2022      C2120   1.467       .  S
C2023      C2153   1.497       .  S
Zn2024     O2028   1.981       .  S
Zn2024     O2029   2.024       .  S
Zn2024     O2033   2.061       .  S
Zn2024     O2040   2.046       .  S
Zn2025     O2980   1.959       .  S
Zn2025     O2030   2.046       .  S
Zn2025     O2984   2.006       .  S
Zn2025     O2988   2.030       .  S
Zn2026     O2028   1.958       .  S
Zn2026     O2031   2.014       .  S
Zn2026     O2986   2.013   1_545  S
Zn2026     O2037   2.002       .  S
Zn2027     O2028   1.968       .  S
Zn2027     O2035   2.008       .  S
Zn2027     O2038   2.052       .  S
Zn2027     O2039   2.030       .  S
O2028     Zn2977   1.965       .  S
O2029      C2041   1.275       .  A
O2030      C2042   1.275       .  A
O2031      C2043   1.273       .  A
O2032     Zn2977   2.012       .  S
O2032      C2041   1.276       .  A
O2033      C2043   1.277       .  A
O2034     Zn2978   2.017       .  S
O2034      C2042   1.273       .  A
O2035      C2044   1.274       .  A
O2036     Zn2977   2.031       .  S
O2036      C2045   1.276       .  A
O2037      C2044   1.272       .  A
O2038      C2045   1.274       .  A
O2039      C2046   1.275       .  A
O2040      C2046   1.276       .  A
C2041      C2201   1.482       .  S
C2042      C2348   1.482       .  S
C2043      C2324   1.494       .  S
C2044      C2144   1.466       .  S
C2045      C2096   1.506       .  S
C2046      C2240   1.480       .  S
Zn2047     O2051   1.947       .  S
Zn2047     O2052   1.984       .  S
Zn2047     O2056   2.014       .  S
Zn2047     O2063   1.991       .  S
Zn2048     O2051   1.972       .  S
Zn2048     O2053   2.018       .  S
Zn2048     O2055   2.038       .  S
Zn2048     O2535   2.035   1_554  S
Zn2049     O2051   1.963       .  S
Zn2049     O2054   2.037       .  S
Zn2049     O2057   2.006       .  S
Zn2049     O2060   2.033       .  S
Zn2050     O2527   1.957       .  S
Zn2050     O2534   2.027       .  S
Zn2050     O2061   2.035       .  S
Zn2050     O2538   2.015       .  S
O2051     Zn2526   1.960       .  S
O2052      C2064   1.268       .  A
O2053      C2065   1.274       .  A
O2054      C2066   1.273       .  A
O2055      C2064   1.276       .  A
O2056      C2066   1.274       .  A
O2057      C2065   1.274       .  A
O2058     Zn2526   2.034       .  S
O2058      C2067   1.277       .  A
O2059     Zn2524   2.041       .  S
O2059      C2068   1.276       .  A
O2060      C2067   1.276       .  A
O2061      C2068   1.274       .  A
O2062     Zn2526   2.013       .  S
O2062      C2069   1.272       .  A
O2063      C2069   1.271       .  A
C2064      C2216   1.485       .  S
C2065      C2180   1.471       .  S
C2066      C2264   1.492       .  S
C2067      C2132   1.481       .  S
C2068      C2372   1.481       .  S
C2069      C2276   1.481       .  S
Zn2070     O2074   1.966       .  S
Zn2070     O2075   2.002       .  S
Zn2070     O2079   2.027       .  S
Zn2070     O2086   2.023       .  S
Zn2071     O2074   1.969       .  S
Zn2071     O2076   2.028       .  S
Zn2071     O2078   2.022       .  S
Zn2072     O2074   1.961       .  S
Zn2072     O2077   2.010       .  S
Zn2072     O2080   2.037       .  S
Zn2072     O2083   2.028       .  S
Zn2073     O2074   1.967       .  S
Zn2073     O2081   2.035       .  S
Zn2073     O2085   2.062       .  S
O2075      C2087   1.272       .  A
O2076      C2088   1.273       .  A
O2077      C2089   1.273       .  A
O2078      C2087   1.275       .  A
O2079      C2089   1.274       .  A
O2080      C2088   1.275       .  A
O2081      C2090   1.277       .  A
O2082      C2091   1.274       .  A
O2083      C2090   1.276       .  A
O2084      C2091   1.273       .  A
O2085      C2092   1.278       .  A
O2086      C2092   1.273       .  A
C2087      C2108   1.478       .  S
C2088      C2165   1.490       .  S
C2089      C2252   1.477       .  S
C2090      C2312   1.485       .  S
C2091      C2360   1.470       .  S
C2092      C2288   1.492       .  S
C2093      C2094   1.403       .  A
C2093      C2098   1.417   1_545  A
C2094      C2095   1.410       .  A
C2094      H2103   1.084       .  S
C2095      C2096   1.424       .  A
C2095      S2099   1.799       .  S
C2096      C2097   1.407       .  A
C2097      C2098   1.400   1_545  A
C2097      H2104   1.083   1_545  S
C2098      S3052   1.808       .  S
S2099      H2102   1.405       .  S
S2100      C3050   1.807       .  S
S2100      H2101   1.401       .  S
C2105      C2106   1.415       .  A
C2105      C2110   1.423       .  A
C2106      C2107   1.400       .  A
C2106      H2115   1.071       .  S
C2107      C2108   1.407       .  A
C2107      S2111   1.812       .  S
C2108      C2109   1.401       .  A
C2109      C2110   1.404       .  A
C2109      H2116   1.083       .  S
C2110      S2112   1.812       .  S
S2111      H2114   1.407       .  S
S2112      H2113   1.406       .  S
C2117      C2118   1.400       .  A
C2117      C2122   1.411       .  A
C2118      C2119   1.396       .  A
C2118      H2127   1.083       .  S
C2119      C2120   1.413       .  A
C2119      S2123   1.804       .  S
C2120      C2121   1.402       .  A
C2121      C2122   1.393       .  A
C2121      H2128   1.084       .  S
S2123      H2126   1.407       .  S
C2129      C2130   1.401       .  A
C2129      C2134   1.413       .  A
C2130      C2131   1.402       .  A
C2130      H2139   1.082       .  S
C2131      C2132   1.415       .  A
C2131      S2135   1.804       .  S
C2132      C2133   1.403       .  A
C2133      C2134   1.402       .  A
C2133      H2140   1.084       .  S
C2134      S2612   1.804       .  S
S2135      H2138   1.407       .  S
S2136      C2610   1.806       .  S
S2136      H2137   1.401       .  S
C2141      C2142   1.411       .  A
C2141      C2146   1.426       .  A
C2142      C2143   1.393       .  A
C2142      H2151   1.073       .  S
C2143      C2144   1.405       .  A
C2143      S3099   1.805       .  S
C2144      C2145   1.397       .  A
C2145      C2146   1.402       .  A
C2145      H2152   1.083       .  S
C2146      S2148   1.812       .  S
S2147      C3095   1.807       .  S
S2147      H2150   1.407       .  S
S2148      H2149   1.406       .  S
C2153      C2154   1.409       .  A
C2153      C2634   1.420       .  A
C2154      C2155   1.404       .  A
C2154      H2163   1.083   1_545  S
C2155      C2156   1.410       .  A
C2155      S2159   1.800   1_545  S
C2156      C2633   1.400       .  A
C2157      C2632   1.399       .  A
C2157      C2158   1.401       .  A
C2157      H2164   1.080       .  S
C2158      C2629   1.416       .  A
C2158      S2160   1.806       .  S
S2159      H2162   1.404       .  S
S2160      H2161   1.407       .  S
C2165      C2166   1.406       .  A
C2166      C2167   1.401       .  A
C2166      H2175   1.084       .  S
C2167      C2168   1.412       .  A
C2167      S2171   1.802       .  S
C2169      C2170   1.406       .  A
C2169      H2176   1.078       .  S
C2170      S2172   1.802       .  S
S2171      H2174   1.405       .  S
S2172      H2173   1.408       .  S
C2177      C2178   1.399       .  A
C2177      C2182   1.413       .  A
C2178      C2179   1.395       .  A
C2178      H2187   1.078       .  S
C2179      C2180   1.413       .  A
C2179      S2183   1.805       .  S
C2180      C2181   1.402       .  A
C2181      C2182   1.400       .  A
C2181      H2188   1.084   1_554  S
C2182      S2184   1.800   1_554  S
S2183      H2186   1.407       .  S
S2184      H2185   1.401       .  S
C2189      C2194   1.413       .  A
C2190      C2191   1.402       .  A
C2190      H2199   1.082       .  S
C2191      S2195   1.813       .  S
C2192      C2193   1.412       .  A
C2193      C2194   1.394       .  A
C2193      H2200   1.073       .  S
C2194      S2196   1.803       .  S
S2195      H2198   1.407       .  S
S2196      H2197   1.407       .  S
C2201      C3154   1.406       .  A
C2201      C2206   1.418       .  A
C2202      C3153   1.406       .  A
C2202      C2203   1.395       .  A
C2202      H2211   1.084       .  S
C2203      C3156   1.409       .  A
C2203      S2207   1.803       .  S
C2204      C3155   1.410       .  A
C2204      C2205   1.400       .  A
C2205      C2206   1.401       .  A
C2205      H2212   1.082       .  S
C2206      S2208   1.802       .  S
S2207      H2210   1.407       .  S
S2208      H2209   1.407       .  S
C2213      C2214   1.409       .  A
C2213      C2218   1.426       .  A
C2214      C2215   1.395       .  A
C2214      H2223   1.074       .  S
C2215      C2216   1.415       .  A
C2215      S2219   1.806       .  S
C2216      C2217   1.402       .  A
C2217      C2218   1.405       .  A
C2217      H2224   1.082   1_554  S
C2218      S2696   1.813   1_554  S
S2219      H2222   1.408       .  S
S2220      C2694   1.812       .  S
S2220      H2697   1.406       .  S
H2221      S2696   1.406       .  S
C2225      C2226   1.404       .  A
C2225      C3182   1.416       .  A
C2226      C2227   1.401       .  A
C2226      H2235   1.084   1_554  S
C2227      C2228   1.410       .  A
C2227      S2231   1.798   1_554  S
C2228      C3181   1.402       .  A
C2229      C3180   1.402       .  A
C2229      C2230   1.401       .  A
C2229      H2236   1.082       .  S
C2230      C3177   1.416       .  A
C2230      S2232   1.803       .  S
S2231      H2234   1.404       .  S
S2232      H2233   1.407       .  S
C2237      C2238   1.406       .  A
C2237      C2242   1.419       .  A
C2238      C2239   1.411       .  A
C2238      H2247   1.084       .  S
C2239      C2240   1.417       .  A
C2239      S2243   1.806       .  S
C2240      C2241   1.399       .  A
C2241      C2242   1.397       .  A
C2241      H2248   1.085       .  S
C2242      S2244   1.806       .  S
S2243      H2246   1.402       .  S
S2244      H2245   1.402       .  S
C2249      C2250   1.414       .  A
C2249      C2254   1.426       .  A
C2250      C2251   1.394       .  A
C2250      H2259   1.074       .  S
C2251      C2252   1.407       .  A
C2251      S2255   1.807       .  S
C2252      C2253   1.401       .  A
C2253      C2254   1.409       .  A
C2253      H2260   1.083       .  S
C2254      S2256   1.811       .  S
S2255      H2258   1.407       .  S
S2256      H2257   1.406       .  S
C2261      C2262   1.404       .  A
C2261      C2266   1.414       .  A
C2262      C2263   1.408       .  A
C2262      H2271   1.084       .  S
C2263      C2264   1.420       .  A
C2263      S2267   1.801       .  S
C2264      C2265   1.404       .  A
C2265      C2266   1.396       .  A
C2265      H2272   1.084       .  S
C2266      S2268   1.801       .  S
S2267      H2270   1.407       .  S
S2268      H2269   1.400       .  S
C2273      C2750   1.413   1_554  A
C2273      C2278   1.423       .  A
C2274      C2749   1.412       .  A
C2274      C2751   1.397       .  A
C2274      H2283   1.075       .  S
C2275      C2750   1.401       .  A
C2275      C2276   1.411   1_556  A
C2275      S2755   1.812       .  S
C2276      C2277   1.401       .  A
C2277      C2278   1.400       .  A
C2277      H2284   1.082       .  S
C2278      S2280   1.810       .  S
S2279      C2751   1.806       .  S
S2279      H2282   1.408       .  S
S2280      H2281   1.406       .  S
C2285      C2286   1.404       .  A
C2285      C2290   1.415       .  A
C2286      C2287   1.412       .  A
C2286      H2295   1.081       .  S
C2287      C2288   1.418       .  A
C2287      S2291   1.808       .  S
C2288      C2289   1.401       .  A
C2289      C2290   1.403       .  A
C2289      H2296   1.084       .  S
S2291      H2294   1.407       .  S
C2297      C2298   1.405       .  A
C2297      C2778   1.420   1_554  A
C2298      C2299   1.401       .  A
C2298      H2307   1.084       .  S
C2299      C2300   1.413       .  A
C2300      C2777   1.400   1_554  A
C2301      C2776   1.400       .  A
C2301      C2302   1.404       .  A
C2301      H2308   1.083       .  S
C2302      C2773   1.422       .  A
C2302      S2304   1.803       .  S
S2304      H2305   1.407       .  S
C2309      C2310   1.403       .  A
C2309      C2314   1.411       .  A
C2310      C2311   1.404       .  A
C2310      H2319   1.082       .  S
C2311      C2312   1.413       .  A
C2311      S2315   1.808       .  S
C2312      C2313   1.406       .  A
C2313      C2314   1.402       .  A
C2313      H2320   1.084       .  S
C2314      S2316   1.802       .  S
S2315      H2318   1.407       .  S
S2316      H2317   1.400       .  S
C2321      C2322   1.405       .  A
C2321      C2326   1.413       .  A
C2322      C2323   1.407       .  A
C2322      H2331   1.082       .  S
C2323      C2324   1.418       .  A
C2323      S2327   1.801       .  S
C2324      C2325   1.408       .  A
C2325      C2326   1.401       .  A
C2325      H2332   1.084   1_545  S
C2326      S2328   1.802   1_545  S
S2327      H2330   1.407       .  S
S2328      H2329   1.403       .  S
C2333      C2334   1.396       .  A
C2333      C2338   1.402       .  A
C2334      C2335   1.400       .  A
C2334      H2343   1.083       .  S
C2335      C2336   1.424       .  A
C2335      S2339   1.813       .  S
C2336      C2337   1.414       .  A
C2337      C2338   1.393       .  A
C2337      H2344   1.076       .  S
C2338      S3292   1.806       .  S
S2339      H2342   1.406       .  S
S2340      C3290   1.806       .  S
S2340      H2341   1.406       .  S
C2345      C2346   1.416       .  A
C2345      C2350   1.427       .  A
C2346      C2347   1.399       .  A
C2346      H2355   1.072       .  S
C2347      C2348   1.407       .  A
C2347      S2351   1.807       .  S
C2348      C2349   1.401       .  A
C2349      C2350   1.411       .  A
C2349      H2356   1.083       .  S
C2350      S2352   1.811       .  S
S2351      H2354   1.407       .  S
S2352      H2353   1.406       .  S
C2357      C2358   1.403       .  A
C2357      C2362   1.418       .  A
C2358      C2359   1.401       .  A
C2358      H2367   1.084       .  S
C2359      C2360   1.411       .  A
C2359      S2363   1.803       .  S
C2360      C2361   1.399       .  A
C2361      C2362   1.397       .  A
C2361      H2368   1.085       .  S
C2362      S2364   1.809       .  S
S2363      H2366   1.406       .  S
S2364      H2365   1.396       .  S
C2369      C2370   1.407       .  A
C2369      C2374   1.417       .  A
C2370      C2371   1.405       .  A
C2370      H2379   1.082       .  S
C2371      C2372   1.411       .  A
C2371      S2375   1.803       .  S
C2372      C2373   1.403       .  A
C2373      C2374   1.404       .  A
C2373      H2380   1.084       .  S
C2374      S2376   1.803       .  S
S2375      H2378   1.406       .  S
S2376      H2377   1.407       .  S
C2381      C2382   1.545       .  S
C2381      C2387   1.541       .  S
C2381      C2385   1.536       .  S
C2381      C2821   1.555       .  S
C2382      H2389   1.080       .  S
C2382      C2383   1.359       .  D
C2383      C2384   1.538       .  S
C2383      C2833   1.479       .  S
C2384      C2388   1.543       .  S
C2384      C2386   1.543       .  S
C2384      H2390   1.111       .  S
C2385      H2391   1.084       .  S
C2385      C2386   1.371       .  D
C2386      C2422   1.487       .  S
C2387      H2392   1.086       .  S
C2387      C2388   1.373       .  D
C2388      C2845   1.493       .  S
C2393      C2399   1.529       .  S
C2393      C2397   1.535       .  S
C2393      C2812   1.535       .  S
C2394      H2401   1.086       .  S
C2394      C2395   1.368       .  D
C2395      C2396   1.545   1_655  S
C2395      C2797   1.493       .  S
C2396      H2402   1.110       .  S
C2397      H2403   1.081       .  S
C2397      C2398   1.359       .  D
C2398      C2470   1.484       .  S
C2399      H2404   1.087       .  S
C2399      C2400   1.362       .  D
C2400      C2785   1.483       .  S
C2405      C2406   1.530       .  S
C2405      C2409   1.528       .  S
C2405      C2749   1.540       .  S
C2406      H2413   1.086       .  S
C2406      C2407   1.367       .  D
C2407      C2776   1.486       .  S
C2408      C2412   1.549   1_554  S
C2408      H2414   1.109   1_554  S
C2409      H2415   1.087       .  S
C2409      C2410   1.364       .  D
C2410      C2446   1.487       .  S
C2411      H2416   1.080       .  S
C2411      C2412   1.362       .  D
C2412      C2761   1.491       .  S
C2417      C2418   1.533       .  S
C2417      C2423   1.552       .  S
C2417      C2421   1.527       .  S
C2417      C2725   1.545       .  S
C2418      H2425   1.086       .  S
C2418      C2419   1.366       .  D
C2419      C2420   1.549       .  S
C2419      C2713   1.493       .  S
C2420      C2424   1.539       .  S
C2420      C2422   1.553       .  S
C2420      H2426   1.111       .  S
C2421      H2427   1.086       .  S
C2421      C2422   1.364       .  D
C2423      H2428   1.080       .  S
C2423      C2424   1.367       .  D
C2424      C2737   1.488       .  S
C2429      C2430   1.546       .  S
C2429      C2435   1.528       .  S
C2429      C2433   1.532       .  S
C2429      C2689   1.540       .  S
C2430      H2437   1.079       .  S
C2430      C3383   1.364       .  D
C2431      C2432   1.537       .  S
C2431      C3382   1.365   1_545  D
C2431      C2680   1.480       .  S
C2432      C2436   1.550       .  S
C2432      C2434   1.546       .  S
C2432      H2438   1.109       .  S
C2433      H2439   1.086       .  S
C2433      C3386   1.369       .  D
C2434      C3385   1.367   1_545  D
C2434      C2458   1.482       .  S
C2435      H2440   1.087       .  S
C2435      C3388   1.358       .  D
C2436      C3387   1.358   1_545  D
C2436      C2704   1.482       .  S
C2441      C2447   1.530       .  S
C2441      C2445   1.534       .  S
C2441      C2668   1.532       .  S
C2442      H2449   1.087       .  S
C2442      C2443   1.361       .  D
C2443      C2444   1.544   1_655  S
C2443      C2653   1.473       .  S
C2444      H2450   1.111       .  S
C2445      H2451   1.079       .  S
C2445      C2446   1.365       .  D
C2447      H2452   1.087       .  S
C2447      C2448   1.363       .  D
C2448      C2644   1.495       .  S
C2453      C2454   1.532       .  S
C2453      C2459   1.544       .  S
C2453      C2457   1.530       .  S
C2453      C2617   1.535       .  S
C2454      H2461   1.087       .  S
C2455      C2456   1.546       .  S
C2455      C2605   1.481       .  S
C2456      C2460   1.549       .  S
C2456      C2458   1.550       .  S
C2456      H2462   1.110       .  S
C2457      H2463   1.087       .  S
C2459      H2464   1.080       .  S
C2460      C2632   1.488       .  S
C2465      C2466   1.536       .  S
C2465      C2471   1.543       .  S
C2465      C2469   1.527       .  S
C2465      C2581   1.544       .  S
C2466      H2473   1.086       .  S
C2466      C3419   1.367       .  D
C2467      C2468   1.550   1_565  S
C2467      C3418   1.365       .  D
C2467      C2569   1.494   1_565  S
C2468      C2472   1.530       .  S
C2468      C2470   1.544       .  S
C2468      H2474   1.108       .  S
C2469      H2475   1.085       .  S
C2469      C3422   1.366       .  D
C2470      C3421   1.367   1_545  D
C2471      H2476   1.079       .  S
C2471      C3424   1.363       .  D
C2472      C3423   1.363   1_545  D
C2472      C2593   1.465       .  S
Zn2477     O2481   1.952       .  S
Zn2477     O2482   2.012       .  S
Zn2477     O2493   2.021       .  S
Zn2478     O2481   1.950       .  S
Zn2478     O2485   1.983       .  S
Zn2478     O2489   1.975       .  S
Zn2479     O2481   1.955       .  S
Zn2479     O3442   2.017   1_545  S
Zn2480     O2481   1.958       .  S
Zn2480     O3440   2.032   1_545  S
Zn2480     O2491   2.013       .  S
Zn2480     O2492   2.037       .  S
O2482      C2494   1.271       .  A
O2483      C2495   1.270       .  A
O2484      C2496   1.273       .  A
O2485      C2494   1.270       .  A
O2486      C2496   1.271       .  A
O2487      C2495   1.273       .  A
O2488     Zn3432   2.049       .  S
O2488      C2497   1.280       .  A
O2489      C2498   1.269       .  A
O2490     Zn3431   2.016       .  S
O2490      C2497   1.274       .  A
O2491      C2498   1.274       .  A
O2492      C2499   1.274       .  A
O2493      C2499   1.273       .  A
C2494      C2665   1.484       .  S
C2495      C2701   1.483       .  S
C2496      C2809   1.460       .  S
C2497      C2773   1.491       .  S
C2498      C2596   1.464       .  S
C2499      C2629   1.491       .  S
Zn2500     O2504   1.979       .  S
Zn2500     O2505   2.009       .  S
Zn2500     O2509   2.057       .  S
Zn2500     O2516   2.043       .  S
Zn2501     O3456   1.971       .  S
Zn2501     O2506   2.060       .  S
Zn2501     O3460   2.027       .  S
Zn2501     O3464   2.040       .  S
Zn2502     O2504   1.959       .  S
Zn2502     O2507   2.021       .  S
Zn2502     O3462   2.016   1_545  S
Zn2502     O2513   1.999       .  S
Zn2503     O2504   1.966       .  S
Zn2503     O2511   2.002       .  S
Zn2503     O2514   2.047       .  S
Zn2503     O2515   2.029       .  S
O2504     Zn3453   1.972       .  S
O2505      C2517   1.274       .  A
O2506      C2518   1.277       .  A
O2507      C2519   1.274       .  A
O2508     Zn3453   2.024       .  S
O2508      C2517   1.278       .  A
O2509      C2519   1.276       .  A
O2510     Zn3454   2.015       .  S
O2510      C2518   1.273       .  A
O2511      C2520   1.274       .  A
O2512     Zn3453   2.040       .  S
O2512      C2521   1.276       .  A
O2513      C2520   1.272       .  A
O2514      C2521   1.274       .  A
O2515      C2522   1.274       .  A
O2516      C2522   1.275       .  A
C2517      C2677   1.478       .  S
C2518      C2824   1.488       .  S
C2519      C2800   1.494       .  S
C2520      C2620   1.465       .  S
C2521      C2572   1.507       .  S
C2522      C2716   1.480       .  S
Zn2523     O2527   1.949       .  S
Zn2523     O2528   1.978       .  S
Zn2523     O2532   2.015       .  S
Zn2523     O2539   1.994       .  S
Zn2524     O2527   1.974       .  S
Zn2524     O2529   2.023       .  S
Zn2524     O2531   2.033       .  S
Zn2525     O2527   1.966       .  S
Zn2525     O2530   2.042       .  S
Zn2525     O2533   2.011       .  S
Zn2525     O2536   2.026       .  S
Zn2526     O2537   2.041   1_554  S
O2528      C2540   1.268       .  A
O2529      C2541   1.275       .  A
O2530      C2542   1.274       .  A
O2531      C2540   1.275       .  A
O2532      C2542   1.273       .  A
O2533      C2541   1.275       .  A
O2534      C2543   1.277       .  A
O2535      C2544   1.276       .  A
O2536      C2543   1.275       .  A
O2537      C2544   1.276       .  A
O2538      C2545   1.273       .  A
O2539      C2545   1.270       .  A
C2540      C2692   1.484       .  S
C2541      C2656   1.478       .  S
C2542      C2740   1.489       .  S
C2543      C2608   1.480       .  S
C2544      C2848   1.481       .  S
C2545      C2752   1.479       .  S
Zn2546     O2550   1.967       .  S
Zn2546     O2551   2.011       .  S
Zn2546     O2555   2.030       .  S
Zn2546     O2562   2.018       .  S
Zn2547     O2550   1.969       .  S
Zn2547     O2552   2.037       .  S
Zn2547     O2554   2.024       .  S
Zn2548     O2550   1.960       .  S
Zn2548     O2553   2.008       .  S
Zn2548     O2556   2.033       .  S
Zn2548     O2559   2.029       .  S
Zn2549     O2550   1.968       .  S
Zn2549     O2557   2.035       .  S
Zn2549     O2561   2.057       .  S
O2551      C2563   1.273       .  A
O2552      C2564   1.274       .  A
O2553      C2565   1.273       .  A
O2554      C2563   1.274       .  A
O2555      C2565   1.274       .  A
O2556      C2564   1.275       .  A
O2557      C2566   1.277       .  A
O2558      C2567   1.275       .  A
O2559      C2566   1.276       .  A
O2560      C2567   1.274       .  A
O2561      C2568   1.277       .  A
O2562      C2568   1.273       .  A
C2563      C2584   1.482       .  S
C2564      C2641   1.496       .  S
C2565      C2728   1.473       .  S
C2566      C2788   1.489       .  S
C2567      C2836   1.472       .  S
C2568      C2764   1.491       .  S
C2569      C2570   1.402       .  A
C2569      C2574   1.417   1_545  A
C2570      C2571   1.409       .  A
C2570      H2579   1.084       .  S
C2571      C2572   1.424       .  A
C2571      S2575   1.799       .  S
C2572      C2573   1.408       .  A
C2573      C2574   1.401   1_545  A
C2573      H2580   1.083   1_545  S
C2574      S3528   1.808       .  S
S2575      H2578   1.406       .  S
S2576      C3526   1.807       .  S
S2576      H2577   1.401       .  S
C2581      C2582   1.414       .  A
C2581      C2586   1.424       .  A
C2582      C2583   1.401       .  A
C2582      H2591   1.070       .  S
C2583      C2584   1.409       .  A
C2583      S2587   1.812       .  S
C2584      C2585   1.402       .  A
C2585      C2586   1.405       .  A
C2585      H2592   1.083       .  S
C2586      S2588   1.812       .  S
S2587      H2590   1.406       .  S
S2588      H2589   1.407       .  S
C2593      C2594   1.399       .  A
C2593      C2598   1.411       .  A
C2594      C2595   1.395       .  A
C2594      H2603   1.083       .  S
C2595      C2596   1.412       .  A
C2595      S2599   1.804       .  S
C2596      C2597   1.401       .  A
C2597      C2598   1.393       .  A
C2597      H2604   1.084       .  S
S2599      H2602   1.407       .  S
C2605      C2606   1.399       .  A
C2605      C2610   1.415       .  A
C2606      C2607   1.396       .  A
C2606      H2615   1.081       .  S
C2607      C2608   1.413       .  A
C2607      S2611   1.804       .  S
C2608      C2609   1.405       .  A
C2609      C2610   1.404       .  A
C2609      H2616   1.084       .  S
S2611      H2614   1.407       .  S
S2612      H2613   1.405       .  S
C2617      C2618   1.412       .  A
C2617      C2622   1.426       .  A
C2618      C2619   1.391       .  A
C2618      H2627   1.073       .  S
C2619      C2620   1.405       .  A
C2619      S3575   1.806       .  S
C2620      C2621   1.397       .  A
C2621      C2622   1.402       .  A
C2621      H2628   1.083       .  S
C2622      S2624   1.809       .  S
S2623      C3571   1.806       .  S
S2623      H2626   1.407       .  S
S2624      H2625   1.406       .  S
C2629      C2630   1.406       .  A
C2630      C2631   1.404       .  A
C2630      H2639   1.084   1_545  S
C2631      C2632   1.413       .  A
C2631      S2635   1.798   1_545  S
C2633      C2634   1.403       .  A
C2633      H2640   1.082       .  S
C2634      S2636   1.808       .  S
S2635      H2638   1.400       .  S
S2636      H2637   1.407       .  S
C2641      C2642   1.407       .  A
C2642      C2643   1.402       .  A
C2642      H2651   1.084       .  S
C2643      C2644   1.414       .  A
C2643      S2647   1.804       .  S
C2645      C2646   1.409       .  A
C2645      H2652   1.081       .  S
C2646      S2648   1.801       .  S
S2647      H2650   1.406       .  S
S2648      H2649   1.407       .  S
C2653      C2654   1.399       .  A
C2653      C2658   1.413       .  A
C2654      C2655   1.395       .  A
C2654      H2663   1.082       .  S
C2655      C2656   1.415       .  A
C2655      S2659   1.804       .  S
C2656      C2657   1.405       .  A
C2657      C2658   1.401       .  A
C2657      H2664   1.084       .  S
C2658      S2660   1.805       .  S
S2659      H2662   1.407       .  S
S2660      H2661   1.398       .  S
C2665      C2670   1.412       .  A
C2666      C2667   1.399   1_455  A
C2666      H2675   1.082   1_455  S
C2667      S2671   1.815       .  S
C2668      C2669   1.411       .  A
C2669      C2670   1.394       .  A
C2669      H2676   1.074       .  S
C2670      S2672   1.800       .  S
S2671      H2674   1.406       .  S
S2672      H2673   1.406       .  S
C2677      C3630   1.404       .  A
C2677      C2682   1.416       .  A
C2678      C3629   1.405       .  A
C2678      C2679   1.397       .  A
C2678      H2687   1.084       .  S
C2679      C3632   1.411       .  A
C2679      S2683   1.803       .  S
C2680      C3631   1.410       .  A
C2680      C2681   1.399       .  A
C2681      C2682   1.399       .  A
C2681      H2688   1.076       .  S
C2682      S2684   1.803       .  S
S2683      H2686   1.405       .  S
S2684      H2685   1.408       .  S
C2689      C2690   1.409       .  A
C2689      C2694   1.425       .  A
C2690      C2691   1.393       .  A
C2690      H2699   1.073       .  S
C2691      C2692   1.414       .  A
C2691      S2695   1.806       .  S
C2692      C2693   1.403       .  A
C2693      C2694   1.406       .  A
C2693      H2700   1.082       .  S
S2695      H2698   1.408       .  S
C2701      C2702   1.405       .  A
C2701      C3658   1.415       .  A
C2702      C2703   1.400       .  A
C2702      H2711   1.084       .  S
C2703      C2704   1.412       .  A
C2703      S2707   1.801       .  S
C2704      C3657   1.401       .  A
C2705      C3656   1.401       .  A
C2705      C2706   1.401       .  A
C2705      H2712   1.080       .  S
C2706      C3653   1.416       .  A
C2706      S2708   1.804       .  S
S2707      H2710   1.403       .  S
S2708      H2709   1.407       .  S
C2713      C2714   1.406       .  A
C2713      C2718   1.420       .  A
C2714      C2715   1.410       .  A
C2714      H2723   1.084       .  S
C2715      C2716   1.415       .  A
C2715      S2719   1.802       .  S
C2716      C2717   1.398       .  A
C2717      C2718   1.397       .  A
C2717      H2724   1.085       .  S
C2718      S2720   1.806       .  S
S2719      H2722   1.404       .  S
S2720      H2721   1.401       .  S
C2725      C2726   1.413       .  A
C2725      C2730   1.428       .  A
C2726      C2727   1.396       .  A
C2726      H2735   1.073       .  S
C2727      C2728   1.406       .  A
C2727      S2731   1.807       .  S
C2728      C2729   1.398       .  A
C2729      C2730   1.408       .  A
C2729      H2736   1.083       .  S
C2730      S2732   1.812       .  S
S2731      H2734   1.407       .  S
S2732      H2733   1.406       .  S
C2737      C2738   1.403       .  A
C2737      C2742   1.410       .  A
C2738      C2739   1.407       .  A
C2738      H2747   1.083       .  S
C2739      C2740   1.419       .  A
C2739      S2743   1.802       .  S
C2740      C2741   1.405       .  A
C2741      C2742   1.398       .  A
C2741      H2748   1.084       .  S
C2742      S2744   1.797       .  S
S2743      H2746   1.407       .  S
S2744      H2745   1.403       .  S
C2749      C2754   1.425       .  A
C2750      H2759   1.071       .  S
C2751      C2752   1.411       .  A
C2752      C2753   1.401       .  A
C2753      C2754   1.403       .  A
C2753      H2760   1.083       .  S
C2754      S2756   1.810       .  S
S2755      H2758   1.406       .  S
S2756      H2757   1.406       .  S
C2761      C2762   1.401       .  A
C2761      C2766   1.414       .  A
C2762      C2763   1.408       .  A
C2762      H2771   1.081       .  S
C2763      C2764   1.418       .  A
C2763      S2767   1.808       .  S
C2764      C2765   1.403       .  A
C2765      C2766   1.402       .  A
C2765      H2772   1.084       .  S
S2767      H2770   1.407       .  S
C2773      C2774   1.404       .  A
C2774      C2775   1.401       .  A
C2774      H2783   1.084       .  S
C2775      C2776   1.414       .  A
C2777      C2778   1.403       .  A
C2777      H2784   1.082       .  S
C2778      S2780   1.802       .  S
S2780      H2781   1.406       .  S
C2785      C2786   1.403       .  A
C2785      C2790   1.409       .  A
C2786      C2787   1.405       .  A
C2786      H2795   1.083       .  S
C2787      C2788   1.416       .  A
C2787      S2791   1.808       .  S
C2788      C2789   1.407       .  A
C2789      C2790   1.402       .  A
C2789      H2796   1.084       .  S
C2790      S2792   1.799       .  S
S2791      H2794   1.407       .  S
S2792      H2793   1.402       .  S
C2797      C2798   1.405       .  A
C2797      C2802   1.410       .  A
C2798      C2799   1.408       .  A
C2798      H2807   1.082       .  S
C2799      C2800   1.419       .  A
C2799      S2803   1.802       .  S
C2800      C2801   1.407       .  A
C2801      C2802   1.401       .  A
C2801      H2808   1.084   1_545  S
C2802      S2804   1.797   1_545  S
S2803      H2806   1.407       .  S
S2804      H2805   1.404       .  S
C2809      C2810   1.397       .  A
C2809      C2814   1.403       .  A
C2810      C2811   1.402       .  A
C2810      H2819   1.083       .  S
C2811      C2812   1.424       .  A
C2811      S2815   1.812       .  S
C2812      C2813   1.414       .  A
C2813      C2814   1.394       .  A
C2813      H2820   1.075       .  S
C2814      S3768   1.806       .  S
S2815      H2818   1.406       .  S
S2816      C3766   1.808       .  S
S2816      H2817   1.403       .  S
C2821      C2822   1.415       .  A
C2821      C2826   1.426       .  A
C2822      C2823   1.398       .  A
C2822      H2831   1.074       .  S
C2823      C2824   1.409       .  A
C2823      S2827   1.807       .  S
C2824      C2825   1.404       .  A
C2825      C2826   1.414       .  A
C2825      H2832   1.082       .  S
C2826      S2828   1.810       .  S
S2827      H2830   1.407       .  S
S2828      H2829   1.406       .  S
C2833      C2834   1.404       .  A
C2833      C2838   1.418       .  A
C2834      C2835   1.405       .  A
C2834      H2843   1.084       .  S
C2835      C2836   1.412       .  A
C2835      S2839   1.803       .  S
C2836      C2837   1.397       .  A
C2837      C2838   1.395       .  A
C2837      H2844   1.085       .  S
C2838      S2840   1.808       .  S
S2839      H2842   1.406       .  S
S2840      H2841   1.393       .  S
C2845      C2846   1.406       .  A
C2845      C2850   1.415       .  A
C2846      C2847   1.404       .  A
C2846      H2855   1.083       .  S
C2847      C2848   1.412       .  A
C2847      S2851   1.803       .  S
C2848      C2849   1.404       .  A
C2849      C2850   1.403       .  A
C2849      H2856   1.084       .  S
C2850      S2852   1.803       .  S
S2851      H2854   1.406       .  S
S2852      H2853   1.405       .  S
C2857      C2858   1.545       .  S
C2857      C2863   1.541       .  S
C2857      C2861   1.534       .  S
C2857      C3297   1.552       .  S
C2858      H2865   1.080       .  S
C2858      C2859   1.361       .  D
C2859      C2860   1.538       .  S
C2859      C3309   1.477       .  S
C2860      C2864   1.545       .  S
C2860      C2862   1.546       .  S
C2860      H2866   1.111       .  S
C2861      H2867   1.084       .  S
C2861      C2862   1.368       .  D
C2862      C2898   1.489       .  S
C2863      H2868   1.086       .  S
C2863      C2864   1.372       .  D
C2864      C3321   1.494       .  S
C2869      C2875   1.528       .  S
C2869      C2873   1.533       .  S
C2869      C3288   1.530       .  S
C2870      H2877   1.086       .  S
C2870      C2871   1.365       .  D
C2871      C2872   1.546   1_655  S
C2871      C3273   1.494       .  S
C2872      H2878   1.109       .  S
C2873      H2879   1.083       .  S
C2873      C2874   1.359       .  D
C2874      C2946   1.485       .  S
C2875      H2880   1.087       .  S
C2875      C2876   1.361       .  D
C2876      C3261   1.483       .  S
C2881      C2882   1.531       .  S
C2881      C3363   1.545   1_554  S
C2881      C2885   1.526       .  S
C2881      C3225   1.538       .  S
C2882      H2889   1.086       .  S
C2882      C2883   1.366       .  D
C2883      C3360   1.549       .  S
C2883      C3252   1.485       .  S
C2884      C3359   1.544       .  S
C2884      C2888   1.549       .  S
C2884      C3362   1.547       .  S
C2884      H2890   1.109       .  S
C2885      H2891   1.087       .  S
C2885      C2886   1.363       .  D
C2886      C3360   1.551       .  S
C2886      C2922   1.485       .  S
C2887      C3357   1.545       .  S
C2887      H2892   1.081       .  S
C2887      C2888   1.363       .  D
C2888      C3237   1.490       .  S
C2893      C2894   1.530       .  S
C2893      C2899   1.548       .  S
C2893      C2897   1.531       .  S
C2893      C3201   1.545       .  S
C2894      H2901   1.087       .  S
C2894      C2895   1.366       .  D
C2895      C2896   1.547       .  S
C2895      C3189   1.491       .  S
C2896      C2900   1.542       .  S
C2896      C2898   1.556       .  S
C2896      H2902   1.111       .  S
C2897      H2903   1.086       .  S
C2897      C2898   1.368       .  D
C2899      H2904   1.081       .  S
C2899      C2900   1.364       .  D
C2900      C3213   1.491       .  S
C2905      C2906   1.547       .  S
C2905      C2911   1.528       .  S
C2905      C2909   1.535       .  S
C2905      C3165   1.540       .  S
C2906      H2913   1.080       .  S
C2907      C2908   1.535       .  S
C2907      C3156   1.483       .  S
C2908      C2912   1.548       .  S
C2908      C2910   1.547       .  S
C2908      H2914   1.110       .  S
C2909      H2915   1.085       .  S
C2910      C2934   1.480       .  S
C2911      H2916   1.087       .  S
C2912      C3180   1.480       .  S
C2917      C2923   1.529       .  S
C2917      C2921   1.537       .  S
C2917      C3144   1.534       .  S
C2918      H2925   1.087       .  S
C2918      C2919   1.359       .  D
C2919      C2920   1.548       .  S
C2919      C3129   1.478       .  S
C2920      H2926   1.110       .  S
C2921      H2927   1.079       .  S
C2921      C2922   1.366       .  D
C2923      H2928   1.087       .  S
C2923      C2924   1.362       .  D
C2924      C3120   1.493       .  S
C2929      C2930   1.534       .  S
C2929      C2935   1.546       .  S
C2929      C2933   1.528       .  S
C2929      C3093   1.534       .  S
C2930      H2937   1.087       .  S
C2930      C3407   1.363       .  D
C2931      C2932   1.541       .  S
C2931      C3406   1.362   1_554  D
C2931      C3081   1.477       .  S
C2932      C2936   1.544       .  S
C2932      C2934   1.547       .  S
C2932      H2938   1.111       .  S
C2933      H2939   1.087       .  S
C2933      C3410   1.361       .  D
C2934      C3409   1.365   1_554  D
C2935      H2940   1.080       .  S
C2935      C3412   1.361       .  D
C2936      C3411   1.362   1_554  D
C2936      C3108   1.483       .  S
C2941      C2942   1.535       .  S
C2941      C2947   1.543       .  S
C2941      C2945   1.531       .  S
C2941      C3057   1.542       .  S
C2942      H2949   1.087       .  S
C2943      C2944   1.549       .  S
C2943      C3045   1.495       .  S
C2944      C2948   1.528       .  S
C2944      C2946   1.544       .  S
C2944      H2950   1.107       .  S
C2945      H2951   1.084       .  S
C2947      H2952   1.080       .  S
C2948      C3069   1.461       .  S
Zn2953     O2957   1.948       .  S
Zn2953     O2958   2.000       .  S
Zn2953     O3438   1.987   1_554  S
Zn2953     O2969   2.010       .  S
Zn2954     O2957   1.956       .  S
Zn2954     O2961   1.991       .  S
Zn2954     O2965   1.976       .  S
Zn2955     O2957   1.957       .  S
Zn2955     O3436   2.008   1_554  S
Zn2956     O2957   1.963       .  S
Zn2956     O2967   2.011       .  S
Zn2956     O2968   2.040       .  S
O2958      C2970   1.269       .  A
O2959      C2971   1.271       .  A
O2960     Zn3431   1.997       .  S
O2960      C2972   1.270       .  A
O2961      C2970   1.270       .  A
O2962     Zn3429   1.992       .  S
O2962      C2972   1.271       .  A
O2963      C2971   1.275       .  A
O2964      C2973   1.278       .  A
O2965      C2974   1.269       .  A
O2966      C2973   1.276       .  A
O2967      C2974   1.275       .  A
O2968      C2975   1.274       .  A
O2969      C2975   1.271       .  A
C2970      C3141   1.486       .  S
C2971      C3177   1.485       .  S
C2972      C3285   1.456       .  S
C2973      C3249   1.490       .  S
C2974      C3072   1.464       .  S
C2975      C3105   1.496       .  S
Zn2976     O2980   1.984       .  S
Zn2976     O2981   2.035       .  S
Zn2976     O2985   2.058       .  S
Zn2976     O2992   2.048       .  S
Zn2977     O2982   2.049   1_545  S
Zn2978     O2980   1.957       .  S
Zn2978     O2983   2.010       .  S
Zn2978     O2989   2.005       .  S
Zn2979     O2980   1.961       .  S
Zn2979     O2987   1.993       .  S
Zn2979     O2990   2.040       .  S
Zn2979     O2991   2.008       .  S
O2981      C2993   1.277       .  A
O2982      C2994   1.275       .  A
O2983      C2995   1.273       .  A
O2984      C2993   1.276       .  A
O2985      C2995   1.277       .  A
O2986      C2994   1.272       .  A
O2987      C2996   1.272       .  A
O2988      C2997   1.275       .  A
O2989      C2996   1.272       .  A
O2990      C2997   1.272       .  A
O2991      C2998   1.273       .  A
O2992      C2998   1.276       .  A
C2993      C3153   1.485       .  S
C2994      C3300   1.483       .  S
C2995      C3276   1.494       .  S
C2996      C3096   1.463       .  S
C2997      C3048   1.505       .  S
C2998      C3192   1.475       .  S
Zn2999     O3003   1.948       .  S
Zn2999     O3004   1.983       .  S
Zn2999     O3008   2.014       .  S
Zn2999     O3015   1.992       .  S
Zn3000     O3003   1.971       .  S
Zn3000     O3005   2.022       .  S
Zn3000     O3007   2.038       .  S
Zn3000     O3487   2.034   1_554  S
Zn3001     O3003   1.964       .  S
Zn3001     O3006   2.043       .  S
Zn3001     O3009   2.016       .  S
Zn3001     O3012   2.026       .  S
Zn3002     O3479   1.959       .  S
Zn3002     O3486   2.034       .  S
Zn3002     O3013   2.032       .  S
Zn3002     O3490   2.019       .  S
O3003     Zn3478   1.961       .  S
O3004      C3016   1.269       .  A
O3005      C3017   1.274       .  A
O3006      C3018   1.274       .  A
O3007      C3016   1.276       .  A
O3008      C3018   1.274       .  A
O3009      C3017   1.275       .  A
O3010     Zn3478   2.029       .  S
O3010      C3019   1.277       .  A
O3011     Zn3476   2.043       .  S
O3011      C3020   1.276       .  A
O3012      C3019   1.276       .  A
O3013      C3020   1.275       .  A
O3014     Zn3478   2.011       .  S
O3014      C3021   1.272       .  A
O3015      C3021   1.270       .  A
C3016      C3168   1.483       .  S
C3017      C3132   1.475       .  S
C3018      C3216   1.492       .  S
C3019      C3084   1.478       .  S
C3020      C3324   1.481       .  S
C3021      C3228   1.479       .  S
Zn3022     O3026   1.968       .  S
Zn3022     O3027   2.011       .  S
Zn3022     O3031   2.035       .  S
Zn3022     O3038   2.023       .  S
Zn3023     O3026   1.965       .  S
Zn3023     O3028   2.028       .  S
Zn3023     O3030   2.016       .  S
Zn3024     O3026   1.959       .  S
Zn3024     O3029   2.011       .  S
Zn3024     O3032   2.040       .  S
Zn3024     O3035   2.033       .  S
Zn3025     O3026   1.967       .  S
Zn3025     O3033   2.028       .  S
Zn3025     O3037   2.048       .  S
O3027      C3039   1.273       .  A
O3028      C3040   1.273       .  A
O3029      C3041   1.274       .  A
O3030      C3039   1.274       .  A
O3031      C3041   1.275       .  A
O3032      C3040   1.276       .  A
O3033      C3042   1.276       .  A
O3034      C3043   1.274       .  A
O3035      C3042   1.276       .  A
O3036      C3043   1.274       .  A
O3037      C3044   1.276       .  A
O3038      C3044   1.273       .  A
C3039      C3060   1.479       .  S
C3040      C3117   1.494       .  S
C3041      C3204   1.480       .  S
C3042      C3264   1.488       .  S
C3043      C3312   1.470       .  S
C3044      C3240   1.488       .  S
C3045      C3046   1.403       .  A
C3045      C3050   1.417       .  A
C3046      C3047   1.410       .  A
C3046      H3055   1.084       .  S
C3047      C3048   1.425       .  A
C3047      S3051   1.800       .  S
C3048      C3049   1.407       .  A
C3049      C3050   1.398       .  A
C3049      H3056   1.083       .  S
S3051      H3054   1.407       .  S
S3052      H3053   1.398       .  S
C3057      C3058   1.414       .  A
C3057      C3062   1.425       .  A
C3058      C3059   1.400       .  A
C3058      H3067   1.071       .  S
C3059      C3060   1.407       .  A
C3059      S3063   1.812       .  S
C3060      C3061   1.401       .  A
C3061      C3062   1.405       .  A
C3061      H3068   1.083       .  S
C3062      S3064   1.812       .  S
S3063      H3066   1.406       .  S
S3064      H3065   1.407       .  S
C3069      C3070   1.399       .  A
C3069      C3074   1.412       .  A
C3070      C3071   1.394       .  A
C3070      H3079   1.083       .  S
C3071      C3072   1.413       .  A
C3071      S3075   1.804       .  S
C3072      C3073   1.401       .  A
C3073      C3074   1.393       .  A
C3073      H3080   1.084       .  S
S3075      H3078   1.407       .  S
C3081      C3082   1.401       .  A
C3081      C3086   1.413       .  A
C3082      C3083   1.401       .  A
C3082      H3091   1.082       .  S
C3083      C3084   1.414       .  A
C3083      S3087   1.804       .  S
C3084      C3085   1.403       .  A
C3085      C3086   1.400       .  A
C3085      H3092   1.084       .  S
C3086      S3564   1.805       .  S
S3087      H3090   1.407       .  S
S3088      C3562   1.804       .  S
S3088      H3089   1.403       .  S
C3093      C3094   1.412       .  A
C3093      C3098   1.427       .  A
C3094      C3095   1.392       .  A
C3094      H3103   1.073       .  S
C3095      C3096   1.404       .  A
C3096      C3097   1.396       .  A
C3097      C3098   1.402       .  A
C3097      H3104   1.083       .  S
C3098      S3100   1.811       .  S
S3099      H3102   1.407       .  S
S3100      H3101   1.406       .  S
C3105      C3106   1.410       .  A
C3105      C3586   1.420       .  A
C3106      C3107   1.405       .  A
C3106      H3115   1.083       .  S
C3107      C3108   1.410       .  A
C3107      S3111   1.801       .  S
C3108      C3585   1.399       .  A
C3109      C3584   1.400       .  A
C3109      C3110   1.404       .  A
C3109      H3116   1.079       .  S
C3110      C3581   1.418       .  A
C3110      S3112   1.806       .  S
S3111      H3114   1.404       .  S
S3112      H3113   1.407       .  S
C3117      C3118   1.406       .  A
C3118      C3119   1.401       .  A
C3118      H3127   1.084       .  S
C3119      C3120   1.414       .  A
C3119      S3123   1.803       .  S
C3121      C3122   1.405       .  A
C3121      H3128   1.078       .  S
C3122      S3124   1.803       .  S
S3123      H3126   1.405       .  S
S3124      H3125   1.408       .  S
C3129      C3130   1.399       .  A
C3129      C3134   1.414       .  A
C3130      C3131   1.396       .  A
C3130      H3139   1.079       .  S
C3131      C3132   1.413       .  A
C3131      S3135   1.805       .  S
C3132      C3133   1.403       .  A
C3133      C3134   1.402       .  A
C3133      H3140   1.084   1_554  S
C3134      S3136   1.802   1_554  S
S3135      H3138   1.407       .  S
S3136      H3137   1.402       .  S
C3141      C3146   1.414       .  A
C3142      C3143   1.398       .  A
C3142      H3151   1.082       .  S
C3143      S3147   1.814       .  S
C3144      C3145   1.410       .  A
C3145      C3146   1.394       .  A
C3145      H3152   1.073       .  S
C3146      S3148   1.802       .  S
S3147      H3150   1.407       .  S
S3148      H3149   1.407       .  S
C3153      C3158   1.418       .  A
C3154      C3155   1.396       .  A
C3154      H3163   1.084       .  S
C3155      S3159   1.804       .  S
C3156      C3157   1.402       .  A
C3157      C3158   1.403       .  A
C3157      H3164   1.081       .  S
C3158      S3160   1.801       .  S
S3159      H3162   1.407       .  S
S3160      H3161   1.407       .  S
C3165      C3166   1.411       .  A
C3165      C3170   1.426       .  A
C3166      C3167   1.395       .  A
C3166      H3175   1.074       .  S
C3167      C3168   1.413       .  A
C3167      S3171   1.807       .  S
C3168      C3169   1.401       .  A
C3169      C3170   1.405       .  A
C3169      H3176   1.082   1_554  S
C3170      S3648   1.812   1_554  S
S3171      H3174   1.408       .  S
S3172      C3646   1.812       .  S
S3172      H3649   1.406       .  S
H3173      S3648   1.407       .  S
C3177      C3178   1.405       .  A
C3178      C3179   1.402       .  A
C3178      H3187   1.084   1_554  S
C3179      C3180   1.411       .  A
C3179      S3183   1.801   1_554  S
C3181      C3182   1.402       .  A
C3181      H3188   1.083       .  S
C3182      S3184   1.804       .  S
S3183      H3186   1.404       .  S
S3184      H3185   1.407   1_545  S
C3189      C3190   1.407       .  A
C3189      C3194   1.419       .  A
C3190      C3191   1.410       .  A
C3190      H3199   1.084       .  S
C3191      C3192   1.415       .  A
C3191      S3195   1.804       .  S
C3192      C3193   1.397       .  A
C3193      C3194   1.394       .  A
C3193      H3200   1.085       .  S
C3194      S3196   1.805       .  S
S3195      H3198   1.405       .  S
S3196      H3197   1.402       .  S
C3201      C3202   1.413       .  A
C3201      C3206   1.425       .  A
C3202      C3203   1.394       .  A
C3202      H3211   1.075       .  S
C3203      C3204   1.408       .  A
C3203      S3207   1.807       .  S
C3204      C3205   1.402       .  A
C3205      C3206   1.410       .  A
C3205      H3212   1.083       .  S
C3206      S3208   1.810       .  S
S3207      H3210   1.407       .  S
S3208      H3209   1.406       .  S
C3213      C3214   1.404       .  A
C3213      C3218   1.412       .  A
C3214      C3215   1.409       .  A
C3214      H3223   1.084       .  S
C3215      C3216   1.420       .  A
C3215      S3219   1.801       .  S
C3216      C3217   1.405       .  A
C3217      C3218   1.396       .  A
C3217      H3224   1.084       .  S
C3218      S3220   1.801       .  S
S3219      H3222   1.407       .  S
S3220      H3221   1.401       .  S
C3225      C3702   1.412   1_554  A
C3225      C3230   1.423       .  A
C3226      C3701   1.413       .  A
C3226      C3703   1.402       .  A
C3226      H3235   1.073       .  S
C3227      C3702   1.400       .  A
C3227      C3228   1.411   1_556  A
C3227      S3707   1.813       .  S
C3228      C3229   1.401       .  A
C3229      C3230   1.400       .  A
C3229      H3236   1.082       .  S
C3230      S3232   1.812       .  S
S3231      C3703   1.812       .  S
S3231      H3234   1.406       .  S
S3232      H3233   1.406       .  S
C3237      C3238   1.402       .  A
C3237      C3242   1.414       .  A
C3238      C3239   1.409       .  A
C3238      H3247   1.081       .  S
C3239      C3240   1.416       .  A
C3239      S3243   1.807       .  S
C3240      C3241   1.401       .  A
C3241      C3242   1.401       .  A
C3241      H3248   1.084       .  S
S3243      H3246   1.407       .  S
C3249      C3250   1.406       .  A
C3249      C3730   1.419   1_554  A
C3250      C3251   1.402       .  A
C3250      H3259   1.084       .  S
C3251      C3252   1.413       .  A
C3252      C3729   1.400   1_554  A
C3253      C3728   1.400       .  A
C3253      C3254   1.403       .  A
C3253      H3260   1.082       .  S
C3254      C3725   1.421       .  A
C3254      S3256   1.802       .  S
S3256      H3257   1.408       .  S
C3261      C3262   1.403       .  A
C3261      C3266   1.409       .  A
C3262      C3263   1.404       .  A
C3262      H3271   1.083       .  S
C3263      C3264   1.416       .  A
C3263      S3267   1.809       .  S
C3264      C3265   1.407       .  A
C3265      C3266   1.402       .  A
C3265      H3272   1.084       .  S
C3266      S3268   1.797       .  S
S3267      H3270   1.407       .  S
S3268      H3269   1.401       .  S
C3273      C3274   1.404       .  A
C3273      C3278   1.414       .  A
C3274      C3275   1.408       .  A
C3274      H3283   1.082       .  S
C3275      C3276   1.418       .  A
C3275      S3279   1.801       .  S
C3276      C3277   1.407       .  A
C3277      C3278   1.399       .  A
C3277      H3284   1.084       .  S
C3278      S3280   1.801       .  S
S3279      H3282   1.408       .  S
S3280      H3281   1.401       .  S
C3285      C3286   1.396       .  A
C3285      C3290   1.402       .  A
C3286      C3287   1.400       .  A
C3286      H3295   1.083       .  S
C3287      C3288   1.424       .  A
C3287      S3291   1.812       .  S
C3288      C3289   1.414       .  A
C3289      C3290   1.392       .  A
C3289      H3296   1.077       .  S
S3291      H3294   1.406       .  S
S3292      H3293   1.406   1_545  S
C3297      C3298   1.415       .  A
C3297      C3302   1.427       .  A
C3298      C3299   1.399       .  A
C3298      H3307   1.073       .  S
C3299      C3300   1.408       .  A
C3299      S3303   1.807       .  S
C3300      C3301   1.401       .  A
C3301      C3302   1.411       .  A
C3301      H3308   1.083       .  S
C3302      S3304   1.811       .  S
S3303      H3306   1.407       .  S
S3304      H3305   1.406       .  S
C3309      C3310   1.403       .  A
C3309      C3314   1.419       .  A
C3310      C3311   1.403       .  A
C3310      H3319   1.084       .  S
C3311      C3312   1.411       .  A
C3311      S3315   1.803       .  S
C3312      C3313   1.398       .  A
C3313      C3314   1.396       .  A
C3313      H3320   1.085       .  S
C3314      S3316   1.809       .  S
S3315      H3318   1.406       .  S
S3316      H3317   1.394       .  S
C3321      C3322   1.407       .  A
C3321      C3326   1.415       .  A
C3322      C3323   1.405       .  A
C3322      H3331   1.082       .  S
C3323      C3324   1.412       .  A
C3323      S3327   1.804       .  S
C3324      C3325   1.403       .  A
C3325      C3326   1.402       .  A
C3325      H3332   1.084       .  S
C3326      S3328   1.803       .  S
S3327      H3330   1.405       .  S
S3328      H3329   1.405       .  S
C3333      C3334   1.545       .  S
C3333      C3339   1.541       .  S
C3333      C3337   1.536       .  S
C3333      C3773   1.554       .  S
C3334      H3341   1.080       .  S
C3334      C3335   1.360       .  D
C3335      C3336   1.537       .  S
C3335      C3785   1.476       .  S
C3336      C3340   1.543       .  S
C3336      C3338   1.542       .  S
C3336      H3342   1.111       .  S
C3337      H3343   1.083       .  S
C3337      C3338   1.369       .  D
C3338      C3374   1.486       .  S
C3339      H3344   1.086       .  S
C3339      C3340   1.373       .  D
C3340      C3797   1.493       .  S
C3345      C3351   1.529       .  S
C3345      C3349   1.536       .  S
C3345      C3764   1.534       .  S
C3346      H3353   1.086       .  S
C3346      C3347   1.367       .  D
C3347      C3348   1.547   1_655  S
C3347      C3749   1.497       .  S
C3348      H3354   1.109   1_455  S
C3349      H3355   1.081       .  S
C3349      C3350   1.361       .  D
C3350      C3422   1.483       .  S
C3351      H3356   1.087       .  S
C3351      C3352   1.361       .  D
C3352      C3737   1.476       .  S
C3357      C3358   1.530       .  S
C3357      C3361   1.530       .  S
C3357      C3701   1.539       .  S
C3358      H3365   1.087       .  S
C3358      C3359   1.366       .  D
C3359      C3728   1.482       .  S
C3360      C3364   1.552   1_554  S
C3360      H3366   1.110       .  S
C3361      H3367   1.087       .  S
C3361      C3362   1.365       .  D
C3362      C3398   1.484       .  S
C3363      H3368   1.080       .  S
C3363      C3364   1.362       .  D
C3364      C3713   1.494       .  S
C3369      C3370   1.531       .  S
C3369      C3375   1.549       .  S
C3369      C3373   1.531       .  S
C3369      C3677   1.544       .  S
C3370      H3377   1.087       .  S
C3370      C3371   1.365       .  D
C3371      C3372   1.547       .  S
C3371      C3665   1.490       .  S
C3372      C3376   1.541       .  S
C3372      C3374   1.551       .  S
C3372      H3378   1.111       .  S
C3373      H3379   1.086       .  S
C3373      C3374   1.365       .  D
C3375      H3380   1.080       .  S
C3375      C3376   1.366       .  D
C3376      C3689   1.488       .  S
C3381      C3382   1.545       .  S
C3381      C3387   1.528       .  S
C3381      C3385   1.531       .  S
C3381      C3641   1.538       .  S
C3382      H3389   1.080       .  S
C3383      C3384   1.536       .  S
C3383      C3632   1.481       .  S
C3384      C3388   1.549       .  S
C3384      C3386   1.544       .  S
C3384      H3390   1.110       .  S
C3385      H3391   1.086       .  S
C3386      C3410   1.482       .  S
C3387      H3392   1.087       .  S
C3388      C3656   1.482       .  S
C3393      C3399   1.531       .  S
C3393      C3397   1.535       .  S
C3393      C3620   1.532       .  S
C3394      H3401   1.087       .  S
C3394      C3395   1.361       .  D
C3395      C3396   1.547   1_655  S
C3395      C3605   1.475       .  S
C3396      H3402   1.110       .  S
C3397      H3403   1.079       .  S
C3397      C3398   1.365       .  D
C3399      H3404   1.087       .  S
C3399      C3400   1.364       .  D
C3400      C3596   1.492       .  S
C3405      C3406   1.532       .  S
C3405      C3411   1.545       .  S
C3405      C3409   1.532       .  S
C3405      C3569   1.536       .  S
C3406      H3413   1.087       .  S
C3407      C3408   1.547       .  S
C3407      C3557   1.484       .  S
C3408      C3412   1.549       .  S
C3408      C3410   1.551       .  S
C3408      H3414   1.110       .  S
C3409      H3415   1.087       .  S
C3411      H3416   1.080       .  S
C3412      C3584   1.488       .  S
C3417      C3418   1.536       .  S
C3417      C3423   1.543       .  S
C3417      C3421   1.529       .  S
C3417      C3533   1.540       .  S
C3418      H3425   1.086       .  S
C3419      C3420   1.551       .  S
C3419      C3521   1.498       .  S
C3420      C3424   1.532       .  S
C3420      C3422   1.547       .  S
C3420      H3426   1.110       .  S
C3421      H3427   1.085       .  S
C3423      H3428   1.080       .  S
C3424      C3545   1.468       .  S
Zn3429     O3433   1.954       .  S
Zn3429     O3434   2.007       .  S
Zn3429     O3445   2.020       .  S
Zn3430     O3433   1.952       .  S
Zn3430     O3437   1.983       .  S
Zn3430     O3441   1.979       .  S
Zn3431     O3433   1.957       .  S
Zn3432     O3433   1.963       .  S
Zn3432     O3443   2.029       .  S
Zn3432     O3444   2.047       .  S
O3434      C3446   1.271       .  A
O3435      C3447   1.271       .  A
O3436      C3448   1.272       .  A
O3437      C3446   1.269       .  A
O3438      C3448   1.270       .  A
O3439      C3447   1.274       .  A
O3440      C3449   1.278       .  A
O3441      C3450   1.270       .  A
O3442      C3449   1.273       .  A
O3443      C3450   1.277       .  A
O3444      C3451   1.276       .  A
O3445      C3451   1.273       .  A
C3446      C3617   1.483       .  S
C3447      C3653   1.484       .  S
C3448      C3761   1.457       .  S
C3449      C3725   1.488       .  S
C3450      C3548   1.470       .  S
C3451      C3581   1.495       .  S
Zn3452     O3456   1.981       .  S
Zn3452     O3457   2.018       .  S
Zn3452     O3461   2.058       .  S
Zn3452     O3468   2.041       .  S
Zn3453     O3458   2.061   1_545  S
Zn3454     O3456   1.957       .  S
Zn3454     O3459   2.017       .  S
Zn3454     O3465   2.003       .  S
Zn3455     O3456   1.967       .  S
Zn3455     O3463   2.004       .  S
Zn3455     O3466   2.046       .  S
Zn3455     O3467   2.026       .  S
O3457      C3469   1.275       .  A
O3458      C3470   1.277       .  A
O3459      C3471   1.274       .  A
O3460      C3469   1.278       .  A
O3461      C3471   1.276       .  A
O3462      C3470   1.272       .  A
O3463      C3472   1.273       .  A
O3464      C3473   1.277       .  A
O3465      C3472   1.272       .  A
O3466      C3473   1.274       .  A
O3467      C3474   1.274       .  A
O3468      C3474   1.275       .  A
C3469      C3629   1.483       .  S
C3470      C3776   1.489       .  S
C3471      C3752   1.497       .  S
C3472      C3572   1.467       .  S
C3473      C3524   1.508       .  S
C3474      C3668   1.477       .  S
Zn3475     O3479   1.949       .  S
Zn3475     O3480   1.976       .  S
Zn3475     O3484   2.010       .  S
Zn3475     O3491   1.993       .  S
Zn3476     O3479   1.972       .  S
Zn3476     O3481   2.023       .  S
Zn3476     O3483   2.036       .  S
Zn3477     O3479   1.964       .  S
Zn3477     O3482   2.037       .  S
Zn3477     O3485   2.012       .  S
Zn3477     O3488   2.031       .  S
Zn3478     O3489   2.041   1_554  S
O3480      C3492   1.267       .  A
O3481      C3493   1.275       .  A
O3482      C3494   1.273       .  A
O3483      C3492   1.276       .  A
O3484      C3494   1.273       .  A
O3485      C3493   1.274       .  A
O3486      C3495   1.277       .  A
O3487      C3496   1.275       .  A
O3488      C3495   1.276       .  A
O3489      C3496   1.275       .  A
O3490      C3497   1.273       .  A
O3491      C3497   1.270       .  A
C3492      C3644   1.484       .  S
C3493      C3608   1.477       .  S
C3494      C3692   1.490       .  S
C3495      C3560   1.482       .  S
C3496      C3800   1.481       .  S
C3497      C3704   1.481       .  S
Zn3498     O3502   1.967       .  S
Zn3498     O3503   2.009       .  S
Zn3498     O3507   2.036       .  S
Zn3498     O3514   2.032       .  S
Zn3499     O3502   1.964       .  S
Zn3499     O3504   2.032       .  S
Zn3499     O3506   2.008       .  S
Zn3500     O3502   1.960       .  S
Zn3500     O3505   2.005       .  S
Zn3500     O3508   2.033       .  S
Zn3500     O3511   2.024       .  S
Zn3501     O3502   1.961       .  S
Zn3501     O3509   2.020       .  S
Zn3501     O3513   2.052       .  S
O3503      C3515   1.273       .  A
O3504      C3516   1.273       .  A
O3505      C3517   1.273       .  A
O3506      C3515   1.273       .  A
O3507      C3517   1.275       .  A
O3508      C3516   1.275       .  A
O3509      C3518   1.276       .  A
O3510      C3519   1.274       .  A
O3511      C3518   1.275       .  A
O3512      C3519   1.273       .  A
O3513      C3520   1.276       .  A
O3514      C3520   1.274       .  A
C3515      C3536   1.479       .  S
C3516      C3593   1.494       .  S
C3517      C3680   1.476       .  S
C3518      C3740   1.486       .  S
C3519      C3788   1.470       .  S
C3520      C3716   1.491       .  S
C3521      C3522   1.403       .  A
C3521      C3526   1.418       .  A
C3522      C3523   1.411       .  A
C3522      H3531   1.084       .  S
C3523      C3524   1.425       .  A
C3523      S3527   1.799       .  S
C3524      C3525   1.408       .  A
C3525      C3526   1.401       .  A
C3525      H3532   1.083       .  S
S3527      H3530   1.406       .  S
S3528      H3529   1.399       .  S
C3533      C3534   1.412       .  A
C3533      C3538   1.424       .  A
C3534      C3535   1.399       .  A
C3534      H3543   1.070       .  S
C3535      C3536   1.410       .  A
C3535      S3539   1.813       .  S
C3536      C3537   1.402       .  A
C3537      C3538   1.403       .  A
C3537      H3544   1.083       .  S
C3538      S3540   1.813       .  S
S3539      H3542   1.406       .  S
S3540      H3541   1.406       .  S
C3545      C3546   1.400       .  A
C3545      C3550   1.410       .  A
C3546      C3547   1.398       .  A
C3546      H3555   1.083       .  S
C3547      C3548   1.413       .  A
C3547      S3551   1.803       .  S
C3548      C3549   1.403       .  A
C3549      C3550   1.394       .  A
C3549      H3556   1.084       .  S
S3551      H3554   1.407       .  S
C3557      C3558   1.401       .  A
C3557      C3562   1.414       .  A
C3558      C3559   1.401       .  A
C3558      H3567   1.078       .  S
C3559      C3560   1.414       .  A
C3559      S3563   1.804       .  S
C3560      C3561   1.404       .  A
C3561      C3562   1.403       .  A
C3561      H3568   1.084       .  S
S3563      H3566   1.407       .  S
S3564      H3565   1.402       .  S
C3569      C3570   1.412       .  A
C3569      C3574   1.426       .  A
C3570      C3571   1.393       .  A
C3570      H3579   1.073       .  S
C3571      C3572   1.406       .  A
C3572      C3573   1.397       .  A
C3573      C3574   1.402       .  A
C3573      H3580   1.083       .  S
C3574      S3576   1.810       .  S
S3575      H3578   1.407       .  S
S3576      H3577   1.406       .  S
C3581      C3582   1.406       .  A
C3582      C3583   1.404       .  A
C3582      H3591   1.084       .  S
C3583      C3584   1.413       .  A
C3583      S3587   1.798       .  S
C3585      C3586   1.402       .  A
C3585      H3592   1.082       .  S
C3586      S3588   1.808       .  S
S3587      H3590   1.398       .  S
S3588      H3589   1.406       .  S
C3593      C3594   1.406       .  A
C3594      C3595   1.401       .  A
C3594      H3603   1.084       .  S
C3595      C3596   1.414       .  A
C3595      S3599   1.804       .  S
C3597      C3598   1.406       .  A
C3597      H3604   1.078       .  S
C3598      S3600   1.802       .  S
S3599      H3602   1.406       .  S
S3600      H3601   1.408       .  S
C3605      C3606   1.400       .  A
C3605      C3610   1.414       .  A
C3606      C3607   1.396       .  A
C3606      H3615   1.080       .  S
C3607      C3608   1.414       .  A
C3607      S3611   1.805       .  S
C3608      C3609   1.404       .  A
C3609      C3610   1.402       .  A
C3609      H3616   1.084       .  S
C3610      S3612   1.805       .  S
S3611      H3614   1.407       .  S
S3612      H3613   1.398       .  S
C3617      C3622   1.412       .  A
C3618      C3619   1.399   1_455  A
C3618      H3627   1.082   1_455  S
C3619      S3623   1.814       .  S
C3620      C3621   1.410       .  A
C3621      C3622   1.393       .  A
C3621      H3628   1.074       .  S
C3622      S3624   1.801       .  S
S3623      H3626   1.406       .  S
S3624      H3625   1.406       .  S
C3629      C3634   1.418       .  A
C3630      C3631   1.397       .  A
C3630      H3639   1.084       .  S
C3631      S3635   1.803       .  S
C3632      C3633   1.399       .  A
C3633      C3634   1.400       .  A
C3633      H3640   1.080       .  S
C3634      S3636   1.802       .  S
S3635      H3638   1.405       .  S
S3636      H3637   1.407       .  S
C3641      C3642   1.410       .  A
C3641      C3646   1.424       .  A
C3642      C3643   1.394       .  A
C3642      H3651   1.073       .  S
C3643      C3644   1.415       .  A
C3643      S3647   1.806       .  S
C3644      C3645   1.402       .  A
C3645      C3646   1.403       .  A
C3645      H3652   1.082       .  S
S3647      H3650   1.407       .  S
C3653      C3654   1.405       .  A
C3654      C3655   1.401       .  A
C3654      H3663   1.084       .  S
C3655      C3656   1.412       .  A
C3655      S3659   1.800       .  S
C3657      C3658   1.400       .  A
C3657      H3664   1.077       .  S
C3658      S3660   1.804       .  S
S3659      H3662   1.404       .  S
S3660      H3661   1.407       .  S
C3665      C3666   1.406       .  A
C3665      C3670   1.419       .  A
C3666      C3667   1.409       .  A
C3666      H3675   1.084       .  S
C3667      C3668   1.415       .  A
C3667      S3671   1.803       .  S
C3668      C3669   1.398       .  A
C3669      C3670   1.397       .  A
C3669      H3676   1.085       .  S
C3670      S3672   1.806       .  S
S3671      H3674   1.405       .  S
S3672      H3673   1.398       .  S
C3677      C3678   1.413       .  A
C3677      C3682   1.427       .  A
C3678      C3679   1.396       .  A
C3678      H3687   1.074       .  S
C3679      C3680   1.408       .  A
C3679      S3683   1.807       .  S
C3680      C3681   1.399       .  A
C3681      C3682   1.408       .  A
C3681      H3688   1.083       .  S
C3682      S3684   1.811       .  S
S3683      H3686   1.407       .  S
S3684      H3685   1.406       .  S
C3689      C3690   1.403       .  A
C3689      C3694   1.412       .  A
C3690      C3691   1.406       .  A
C3690      H3699   1.084       .  S
C3691      C3692   1.419       .  A
C3691      S3695   1.801       .  S
C3692      C3693   1.405       .  A
C3693      C3694   1.396       .  A
C3693      H3700   1.084       .  S
C3694      S3696   1.801       .  S
S3695      H3698   1.408       .  S
S3696      H3697   1.401       .  S
C3701      C3706   1.423       .  A
C3702      H3711   1.072       .  S
C3703      C3704   1.411       .  A
C3704      C3705   1.401       .  A
C3705      C3706   1.400       .  A
C3705      H3712   1.082       .  S
C3706      S3708   1.811       .  S
S3707      H3710   1.406       .  S
S3708      H3709   1.406       .  S
C3713      C3714   1.403       .  A
C3713      C3718   1.416       .  A
C3714      C3715   1.410       .  A
C3714      H3723   1.080       .  S
C3715      C3716   1.416       .  A
C3715      S3719   1.807       .  S
C3716      C3717   1.402       .  A
C3717      C3718   1.403       .  A
C3717      H3724   1.084       .  S
S3719      H3722   1.407       .  S
C3725      C3726   1.405       .  A
C3726      C3727   1.398       .  A
C3726      H3735   1.084       .  S
C3727      C3728   1.412       .  A
C3729      C3730   1.403       .  A
C3729      H3736   1.081       .  S
C3730      S3732   1.803       .  S
S3732      H3733   1.407       .  S
C3737      C3738   1.401       .  A
C3737      C3742   1.409       .  A
C3738      C3739   1.400       .  A
C3738      H3747   1.083       .  S
C3739      C3740   1.416       .  A
C3739      S3743   1.809       .  S
C3740      C3741   1.409       .  A
C3741      C3742   1.403       .  A
C3741      H3748   1.084       .  S
C3742      S3744   1.805       .  S
S3743      H3746   1.407       .  S
S3744      H3745   1.404       .  S
C3749      C3750   1.405       .  A
C3749      C3754   1.415       .  A
C3750      C3751   1.409       .  A
C3750      H3759   1.082       .  S
C3751      C3752   1.419       .  A
C3751      S3755   1.801       .  S
C3752      C3753   1.406       .  A
C3753      C3754   1.400       .  A
C3753      H3760   1.084       .  S
C3754      S3756   1.802       .  S
S3755      H3758   1.408       .  S
S3756      H3757   1.400       .  S
C3761      C3762   1.396       .  A
C3761      C3766   1.403       .  A
C3762      C3763   1.400       .  A
C3762      H3771   1.083       .  S
C3763      C3764   1.425       .  A
C3763      S3767   1.813       .  S
C3764      C3765   1.414       .  A
C3765      C3766   1.393       .  A
C3765      H3772   1.074       .  S
S3767      H3770   1.406       .  S
S3768      H3769   1.405   1_545  S
C3773      C3774   1.415       .  A
C3773      C3778   1.426       .  A
C3774      C3775   1.399       .  A
C3774      H3783   1.074       .  S
C3775      C3776   1.409       .  A
C3775      S3779   1.806       .  S
C3776      C3777   1.404       .  A
C3777      C3778   1.414       .  A
C3777      H3784   1.082       .  S
C3778      S3780   1.810       .  S
S3779      H3782   1.407       .  S
S3780      H3781   1.406       .  S
C3785      C3786   1.405       .  A
C3785      C3790   1.418       .  A
C3786      C3787   1.404       .  A
C3786      H3795   1.084       .  S
C3787      C3788   1.412       .  A
C3787      S3791   1.803       .  S
C3788      C3789   1.397       .  A
C3789      C3790   1.394       .  A
C3789      H3796   1.085       .  S
C3790      S3792   1.809       .  S
S3791      H3794   1.406       .  S
S3792      H3793   1.393       .  S
C3797      C3798   1.406       .  A
C3797      C3802   1.414       .  A
C3798      C3799   1.404       .  A
C3798      H3807   1.082       .  S
C3799      C3800   1.412       .  A
C3799      S3803   1.804       .  S
C3800      C3801   1.404       .  A
C3801      C3802   1.403       .  A
C3801      H3808   1.084       .  S
C3802      S3804   1.803       .  S
S3803      H3806   1.406       .  S
S3804      H3805   1.405       .  S
