geometry optimzed in LAMMPS
_audit_creation_date              2020-11-30 
_audit_creation_method            'lammps2cif' 
_symmetry_space_group_name_H-M    'P1' 
_symmetry_Int_Tables_number       1 
_symmetry_cell_setting            triclinic 
loop_ 
_symmetry_equiv_pos_as_xyz 
  x,y,z 
_cell_length_a                    34.58444101 
_cell_length_b                    29.029669767078495 
_cell_length_c                    22.566976463301124 
_cell_angle_alpha                 87.75707965075125 
_cell_angle_beta                  90.28445268067799 
_cell_angle_gamma                 89.11367856385301 
loop_ 
_atom_site_label 
_atom_site_type_symbol 
_atom_site_fract_x 
_atom_site_fract_y 
_atom_site_fract_z 
_atom_site_charge 
C1          C  0.97504653  0.39081578  0.18330820    -0.02600
C2          C  0.57902051  0.14187948  0.69108929    -0.02600
O3          O  0.63098667  0.15876070  0.40537116    -0.78600
C4          C  0.72429940  0.21039481  0.29243893     0.82400
O5          O  0.57518246  0.17402997  0.20425847    -0.79700
O6          O  0.70414832  0.11040887  0.15385768    -0.81200
O7          O  0.68601053  0.02668118  0.34686945    -0.81000
O8          O  0.61489500  0.08534207  0.40964375    -0.79600
Zn9        Zn  0.64250724  0.17419160  0.31861086     1.55700
O10         O  0.72915417  0.05833605  0.28617884    -0.81000
Cd11       Cd  0.63633296  0.06524919  0.32921044     1.59700
Cd12       Cd  0.61188177  0.11738365  0.20475565     1.59600
O13         O  0.59533158  0.02355005  0.29349722    -0.81000
O14         O  0.64827925  0.11891447  0.27439378    -1.91500
Cd15       Cd  0.70268815  0.11557225  0.24545114     1.59900
O16         O  0.57683022  0.05960269  0.20864657    -0.81000
O17         O  0.73384006  0.17481425  0.26407804    -0.79600
C18         C  0.57297314  0.20662531  0.24025715     0.82900
C19         C  0.61832877  0.12361487  0.43443953     0.82500
O20         O  0.69081706  0.21367401  0.31560572    -0.78600
C21         C  0.72006912  0.02792193  0.32583570     0.83400
O22         O  0.59671713  0.21007417  0.28341092    -0.78700
C23         C  0.57433134  0.02637398  0.24697187     0.83500
C24         C  0.67803966  0.11354381  0.11368489     0.83800
O25         O  0.64220505  0.11737653  0.12593064    -0.81100
C26         C  0.72203327  0.12340408  0.85898357    -0.02600
O27         O  0.92206398  0.34488392  0.90370263    -0.78600
C28         C  0.82507831  0.28229716  0.80813594     0.82400
O29         O  0.97309153  0.30631909  0.71627580    -0.79700
O30         O  0.84516062  0.36307612  0.64141043    -0.81200
O31         O  0.85429738  0.47068466  0.80044932    -0.81000
O32         O  0.91509812  0.42040464  0.89541156    -0.79600
Zn33       Zn  0.90642642  0.32136505  0.82458689     1.55700
O34         O  0.81139803  0.43159532  0.74978589    -0.81000
Cd35       Cd  0.90368967  0.43074183  0.80557715     1.59700
Cd36       Cd  0.93685585  0.36486676  0.70053492     1.59600
O37         O  0.94790893  0.46823503  0.76647001    -0.81000
O38         O  0.89752596  0.37117938  0.76563568    -1.91500
Cd39       Cd  0.84322912  0.37058537  0.73275199     1.59900
O40         O  0.97121291  0.42380012  0.69566002    -0.81000
O41         O  0.81483428  0.31397218  0.77013748    -0.79600
C42         C  0.97511333  0.27770911  0.76080108     0.82900
C43         C  0.92361080  0.38414026  0.92652863     0.82500
O44         O  0.85856431  0.28141299  0.83240853    -0.78600
C45         C  0.82074922  0.46726431  0.77782665     0.83400
O46         O  0.95150771  0.28143050  0.80321799    -0.78700
C47         C  0.97158392  0.46079644  0.72462997     0.83500
C48         C  0.87253938  0.35956885  0.60402193     0.83800
O49         O  0.90819071  0.35941505  0.61931018    -0.81100
C50         C  0.82851911  0.36667065  0.34580189    -0.02600
C51         C  0.46805943  0.36570522  0.24984545    -0.02600
C52         C  0.08090663  0.11074858  0.73844329    -0.02600
O53         O  0.12997065  0.08561255  0.02332899    -0.78600
C54         C  0.23071698  0.04018381  0.12487986     0.82400
O55         O  0.08147573  0.08158784  0.22322991    -0.79700
O56         O  0.21098121  0.13351807  0.27433310    -0.81200
O57         O  0.19700550  0.22383953  0.08652140    -0.81000
O58         O  0.13503063  0.16117203  0.00483169    -0.79600
Zn59       Zn  0.14620521  0.07389536  0.10956772     1.55700
O60         O  0.23891126  0.18743840  0.14842212    -0.81000
Cd61       Cd  0.14764668  0.18343782  0.09007662     1.59700
Cd62       Cd  0.11938886  0.13661198  0.21751002     1.59600
O63         O  0.10217006  0.22493213  0.11769989    -0.81000
O64         O  0.15585521  0.13058131  0.14918852    -1.91500
Cd65       Cd  0.21023012  0.13063783  0.18166713     1.59900
O66         O  0.08852412  0.19802093  0.20876718    -0.81000
O67         O  0.24182507  0.07402063  0.15453736    -0.79600
C68         C  0.08079200  0.04453459  0.19470748     0.82900
C69         C  0.12811272  0.12074704  0.98761892     0.82500
O70         O  0.19579890  0.03663428  0.10733629    -0.78600
C71         C  0.23000610  0.22066006  0.11219962     0.83400
O72         O  0.10431567  0.03719711  0.15248882    -0.78700
C73         C  0.08378881  0.22788540  0.16639347     0.83500
C74         C  0.18410970  0.13748980  0.31255625     0.83800
O75         O  0.14850852  0.13859432  0.29774028    -0.81100
C76         C  0.21839708  0.15854384  0.57172671    -0.02600
O77         O  0.34789746  0.31339881  0.60314772    -0.78600
C78         C  0.41517488  0.40211710  0.49083697     0.82400
O79         O  0.47066133  0.33687690  0.70732655    -0.79700
O80         O  0.45063534  0.49486589  0.63036804    -0.81200
O81         O  0.31968726  0.46986454  0.67379328    -0.81000
O82         O  0.30507317  0.35737452  0.64748241    -0.79600
Zn83       Zn  0.39832828  0.34651896  0.60544710     1.55700
O84         O  0.35589026  0.50238819  0.60317748    -0.81000
Cd85       Cd  0.34313583  0.40389768  0.68532608     1.59700
Cd86       Cd  0.43695577  0.39659630  0.71289195     1.59600
O87         O  0.34795854  0.39042320  0.77529049    -0.81000
O88         O  0.39578727  0.40118667  0.65024322    -1.91500
Cd89       Cd  0.40362264  0.45849585  0.59987459     1.59900
O90         O  0.41066356  0.39844335  0.79493406    -0.81000
O91         O  0.41291372  0.44171245  0.51304265    -0.79600
C92         C  0.46686146  0.30220720  0.67510265     0.82900
C93         C  0.31310528  0.32215998  0.61749392     0.82500
O94         O  0.41063708  0.36481774  0.52142339    -0.78600
C95         C  0.32659186  0.50323475  0.63719952     0.83400
O96         O  0.43955011  0.30218641  0.63722543    -0.78700
C97         C  0.37580185  0.39380028  0.81204225     0.83500
C98         C  0.47463695  0.48772838  0.67299278     0.83800
O99         O  0.47378155  0.45180667  0.70710394    -0.81100
C100        C  0.33201578  0.38110896  0.06737260    -0.02600
C101        C  0.39329727  0.37683845  0.91955155    -0.02000
C102        C  0.36677875  0.39363095  0.87635523     0.07700
C103        C  0.33124152  0.41159708  0.89528173    -0.02100
C104        C  0.31882816  0.40245480  0.95373759    -0.02100
C105        C  0.34586258  0.38783423  0.00018213     0.07800
C106        C  0.38520219  0.38168902  0.98014988    -0.02300
Br107      Br  0.43141667  0.39220297  0.02476072    -0.00800
Br108      Br  0.44100198  0.34617477  0.89737781    -0.00900
Br109      Br  0.26346143  0.40463444  0.96130354    -0.00900
Br110      Br  0.29991995  0.45150772  0.84252328    -0.00900
C111        C  0.28813632  0.26529040  0.54624821    -0.02000
C112        C  0.28240380  0.28986785  0.59798355     0.07700
C113        C  0.24883182  0.28064350  0.63100552    -0.02100
C114        C  0.22366842  0.24505166  0.61460463    -0.02100
C115        C  0.23687557  0.20925584  0.57582316     0.07800
C116        C  0.26882389  0.22339118  0.53818788    -0.02300
Br117      Br  0.29342585  0.18595507  0.48015982    -0.00800
Br118      Br  0.32305398  0.28920274  0.48572189    -0.00900
Br119      Br  0.17056209  0.25649481  0.63783488    -0.00900
Br120      Br  0.23663283  0.31610573  0.69960137    -0.00900
C121        C  0.28666003  0.12631198  0.61869448    -0.02000
C122        C  0.24715389  0.11920904  0.59924268     0.07700
C123        C  0.23454296  0.07180972  0.60613110    -0.02100
C124        C  0.25912428  0.53655376  0.63041815    -0.02100
C125        C  0.29923145  0.04331191  0.63232550     0.07800
C126        C  0.31285223  0.08855531  0.62539010    -0.02300
Br127      Br  0.36797811  0.09979534  0.62629100    -0.00800
Br128      Br  0.30823652  0.18225109  0.64860448    -0.00900
Br129      Br  0.23799405  0.47652925  0.65172449    -0.00900
Br130      Br  0.18958196  0.04752590  0.56774422    -0.00900
C131        C  0.18409292  0.18308545  0.40414157    -0.02000
C132        C  0.19428825  0.14263926  0.37605202     0.07700
C133        C  0.21496473  0.10807924  0.40772195    -0.02100
C134        C  0.22708494  0.11424429  0.46697026    -0.02100
C135        C  0.21154030  0.15206650  0.50131834     0.07800
C136        C  0.19172897  0.18785387  0.46536574    -0.02300
Br137      Br  0.16976664  0.24326831  0.49619096    -0.00800
Br138      Br  0.15831269  0.23218917  0.35718469    -0.00900
Br139      Br  0.27236493  0.07557268  0.48618838    -0.00900
Br140      Br  0.22685331  0.05144455  0.36802601    -0.00900
C141        C  0.27046088  0.26841703  0.04258836    -0.02000
C142        C  0.25883552  0.25709290  0.10060472     0.07700
C143        C  0.27461130  0.28060850  0.14787339    -0.02100
C144        C  0.29691296  0.32029932  0.13677003    -0.02100
C145        C  0.30879857  0.33422552  0.07750117     0.07800
C146        C  0.29819591  0.30298019  0.03140598    -0.02300
Br147      Br  0.32332591  0.29680339  0.95517975    -0.00800
Br148      Br  0.24930763  0.23401370  0.97808651    -0.00900
Br149      Br  0.30184406  0.35915941  0.20372460    -0.00900
Br150      Br  0.26133516  0.26179691  0.22866424    -0.00900
C151        C  0.29079135  0.00914806  0.07615398    -0.02000
C152        C  0.25807990  0.00245164  0.11183618     0.07700
C153        C  0.24811305  0.45807153  0.12923332    -0.02100
C154        C  0.26556533  0.42047804  0.10311235    -0.02100
C155        C  0.30416098  0.42438997  0.07885424     0.07800
C156        C  0.31535657  0.47120943  0.06301060    -0.02300
Br157      Br  0.36459696  0.48690758  0.02781747    -0.00800
Br158      Br  0.30195687  0.07071906  0.04597939    -0.00900
Br159      Br  0.22735803  0.37331543  0.08925974    -0.00900
Br160      Br  0.20992412  0.44807843  0.19009683    -0.00900
C161        C  0.11788416  0.10929970  0.63212304    -0.02000
C162        C  0.11557866  0.12275408  0.69306743     0.07700
C163        C  0.14538032  0.15391709  0.70861029    -0.02100
C164        C  0.17993838  0.15698700  0.67464069    -0.02100
C165        C  0.17950049  0.15157049  0.61146733     0.07800
C166        C  0.14359579  0.13233958  0.59123857    -0.02300
Br167      Br  0.12544004  0.13338753  0.50970286    -0.00800
Br168      Br  0.08752119  0.06131740  0.59701007    -0.00900
Br169      Br  0.22569668  0.17060278  0.71962205    -0.00900
Br170      Br  0.14079607  0.19483510  0.77466654    -0.00900
C171        C  0.13848224  0.09529545  0.82333969    -0.02000
C172        C  0.09840308  0.09620320  0.80399665     0.07700
C173        C  0.07310681  0.08649892  0.85212716    -0.02100
C174        C  0.08032949  0.10438594  0.90792517    -0.02100
C175        C  0.11841612  0.11360052  0.92438061     0.07800
C176        C  0.14787776  0.10568420  0.88298732    -0.02300
Br177      Br  0.20106534  0.10773171  0.90965235    -0.00800
Br178      Br  0.18158908  0.07233368  0.77796410    -0.00900
Br179      Br  0.03944151  0.10480207  0.96572444    -0.00900
Br180      Br  0.05507239  0.02416063  0.86254835    -0.00900
C181        C  0.41807827  0.41145408  0.17607621    -0.02000
C182        C  0.43396826  0.36877257  0.19936045     0.07700
C183        C  0.41670445  0.32937229  0.17175447    -0.02100
C184        C  0.38991897  0.33542756  0.12344894    -0.02100
C185        C  0.36787190  0.37758368  0.11381494     0.07800
C186        C  0.38068873  0.41352844  0.15108971    -0.02300
Br187      Br  0.35026990  0.46180652  0.18518661    -0.00800
Br188      Br  0.44931641  0.45974572  0.14072314    -0.00900
Br189      Br  0.38800487  0.28524406  0.06943568    -0.00900
Br190      Br  0.42259910  0.26520226  0.19912048    -0.00900
C191        C  0.47901564  0.37791653  0.36334511    -0.02000
C192        C  0.45240243  0.36957540  0.31555186     0.07700
C193        C  0.41218143  0.36982306  0.33139272    -0.02100
C194        C  0.39981338  0.38642104  0.38619702    -0.02100
C195        C  0.42680934  0.39808216  0.42903766     0.07800
C196        C  0.46616588  0.39483662  0.41728596    -0.02300
Br197      Br  0.50262977  0.41371482  0.47698908    -0.00800
Br198      Br  0.53274907  0.36015306  0.36320751    -0.00900
Br199      Br  0.34542171  0.39506565  0.40275943    -0.00900
Br200      Br  0.37434086  0.33464221  0.29239481    -0.00900
C201        C  0.99127557  0.03949352  0.68754800    -0.02000
C202        C  0.00136060  0.49586639  0.71166240     0.07700
C203        C  0.04012838  0.48626932  0.72561309    -0.02100
C204        C  0.06719932  0.02198092  0.72587205    -0.02100
C205        C  0.05533676  0.06931172  0.71652611     0.07800
C206        C  0.01840022  0.07559727  0.68682568    -0.02300
Br207      Br  0.00404804  0.12998589  0.63914612    -0.00800
Br208      Br  0.93990506  0.04941429  0.65518549    -0.00900
Br209      Br  0.12018394  0.00254385  0.73040609    -0.00900
Br210      Br  0.05550497  0.42388964  0.74950434    -0.00900
C211        C  0.03702969  0.23986519  0.72649461    -0.02000
C212        C  0.00404822  0.23799106  0.76226583     0.07700
C213        C  0.99674385  0.19605151  0.79387559    -0.02100
C214        C  0.01882190  0.15542153  0.78344292    -0.02100
C215        C  0.05271085  0.15581686  0.74535752     0.07800
C216        C  0.05757182  0.19933560  0.71234485    -0.02300
Br217      Br  0.07837403  0.20611268  0.63310157    -0.00800
Br218      Br  0.05602595  0.29920661  0.69780128    -0.00900
Br219      Br  0.99164762  0.10028955  0.80980073    -0.00900
Br220      Br  0.95579827  0.19275196  0.85307037    -0.00900
C221        C  0.85125375  0.31890137  0.51360164    -0.02000
C222        C  0.86245823  0.35920029  0.54014609     0.07700
C223        C  0.86279848  0.40034283  0.50658559    -0.02100
C224        C  0.85601433  0.40079654  0.44486052    -0.02100
C225        C  0.84050933  0.36107303  0.41542473     0.07800
C226        C  0.83588731  0.32031759  0.45498721    -0.02300
Br227      Br  0.80314432  0.26772316  0.44395188    -0.00800
Br228      Br  0.85681168  0.26141255  0.55990548    -0.00900
Br229      Br  0.87518019  0.45592580  0.40507870    -0.00900
Br230      Br  0.87404151  0.45660409  0.54686955    -0.00900
C231        C  0.80712353  0.05081761  0.78727761    -0.02000
C232        C  0.79275720  0.50621341  0.78724813     0.07700
C233        C  0.75496080  0.49879248  0.80724626    -0.02100
C234        C  0.73250283  0.03581123  0.82921289    -0.02100
C235        C  0.74839442  0.08114184  0.83705866     0.07800
C236        C  0.78839957  0.08535276  0.81917543    -0.02300
Br237      Br  0.82541178  0.12765850  0.84901120    -0.00800
Br238      Br  0.85332099  0.06516580  0.74241810    -0.00900
Br239      Br  0.68313806  0.01791238  0.85913347    -0.00900
Br240      Br  0.73415542  0.43721656  0.80469606    -0.00900
C241        C  0.74507198  0.19675084  0.79606978    -0.02000
C242        C  0.74468271  0.17161964  0.85161985     0.07700
C243        C  0.76727800  0.19310944  0.89766051    -0.02100
C244        C  0.78931335  0.23292210  0.88353562    -0.02100
C245        C  0.79727234  0.24534292  0.82405282     0.07800
C246        C  0.77715323  0.22286512  0.77989591    -0.02300
Br247      Br  0.78686212  0.23466002  0.69678003    -0.00800
Br248      Br  0.70072114  0.23393616  0.77366042    -0.00900
Br249      Br  0.80870600  0.27035661  0.94554041    -0.00900
Br250      Br  0.77933020  0.16698986  0.97628746    -0.00900
C251        C  0.53818726  0.40691839  0.22806480    -0.02000
C252        C  0.49717589  0.40917727  0.24393364     0.07700
C253        C  0.48419312  0.45470357  0.26219251    -0.02100
C254        C  0.50916205  0.99303447  0.26097010    -0.02100
C255        C  0.54637358  0.98932426  0.23828960     0.07800
C256        C  0.55985354  0.44741191  0.21875512    -0.02300
Br257      Br  0.61073913  0.44623994  0.18232289    -0.00800
Br258      Br  0.57377730  0.35442397  0.23561120    -0.00900
Br259      Br  0.49280469  0.05245612  0.28952920    -0.00900
Br260      Br  0.43230670  0.46994493  0.28912792    -0.00900
C261        C  0.53253863  0.26746924  0.18500950    -0.02000
C262        C  0.54014083  0.23961323  0.23597449     0.07700
C263        C  0.51640159  0.24335550  0.28532713    -0.02100
C264        C  0.49033291  0.28075087  0.28931071    -0.02100
C265        C  0.48971108  0.31762936  0.24376910     0.07800
C266        C  0.50754072  0.30641926  0.18834869    -0.02300
Br267      Br  0.50458825  0.34719570  0.11850678    -0.00800
Br268      Br  0.56001829  0.25538662  0.11282362    -0.00900
Br269      Br  0.45287958  0.27163543  0.35266036    -0.00900
Br270      Br  0.51730281  0.19278108  0.34447702    -0.00900
C271        C  0.71138527  0.07879767  0.02727901    -0.02000
C272        C  0.68965839  0.11488228  0.05058997     0.07700
C273        C  0.68049959  0.15391399  0.01472015    -0.02100
C274        C  0.68950455  0.15542566  0.95382815    -0.02100
C275        C  0.71123843  0.11850408  0.92725050     0.07800
C276        C  0.72481217  0.08173070  0.96805067    -0.02300
Br277      Br  0.76911176  0.04144105  0.95543196    -0.00800
Br278      Br  0.72405108  0.02554333  0.07876219    -0.00900
Br279      Br  0.66917177  0.20901443  0.90970513    -0.00900
Br280      Br  0.65726552  0.20713919  0.05089136    -0.00900
C281        C  0.76778710  0.41430297  0.38332143    -0.02000
C282        C  0.80204437  0.41281103  0.34610950     0.07700
C283        C  0.81006973  0.45587745  0.31468425    -0.02100
C284        C  0.78710829  0.99554088  0.32250973    -0.02100
C285        C  0.74968671  0.99188836  0.34474726     0.07800
C286        C  0.74154681  0.45250140  0.38064166    -0.02300
Br287      Br  0.69522947  0.45082940  0.42893479    -0.00800
Br288      Br  0.75122731  0.36341706  0.43419529    -0.00900
Br289      Br  0.80951662  0.05629755  0.31155070    -0.00900
Br290      Br  0.85084296  0.46838229  0.26053711    -0.00900
C291        C  0.76331086  0.33300032  0.29748170    -0.02000
C292        C  0.80219395  0.32597978  0.32163509     0.07700
C293        C  0.81705272  0.27979011  0.31657515    -0.02100
C294        C  0.79209221  0.24233875  0.30611524    -0.02100
C295        C  0.75195920  0.24967832  0.29751649     0.07800
C296        C  0.73819660  0.29544692  0.29076116    -0.02300
Br297      Br  0.68497817  0.30715417  0.26534660    -0.00800
Br298      Br  0.74493730  0.38933005  0.25521298    -0.00900
Br299      Br  0.81286831  0.18012906  0.31125032    -0.00900
Br300      Br  0.87080257  0.26418380  0.33006521    -0.00900
C301        C  0.61149136  0.13366781  0.79905021    -0.02000
C302        C  0.61550358  0.14214870  0.73650252     0.07700
C303        C  0.65500146  0.14563670  0.71760657    -0.02100
C304        C  0.68649842  0.12997593  0.75403679    -0.02100
C305        C  0.68329394  0.12476154  0.81727824     0.07800
C306        C  0.64351924  0.12201694  0.83757487    -0.02300
Br307      Br  0.62729837  0.09392369  0.91378928    -0.00800
Br308      Br  0.56247517  0.14294673  0.83713283    -0.00900
Br309      Br  0.73335080  0.11485977  0.71092241    -0.00900
Br310      Br  0.67120544  0.18090636  0.64741249    -0.00900
C311        C  0.48643065  0.06375231  0.71457835    -0.02000
C312        C  0.50136362  0.02473393  0.68754072     0.07700
C313        C  0.54150831  0.51874987  0.68518304    -0.02100
C314        C  0.56543933  0.05297488  0.70666227    -0.02100
C315        C  0.55148545  0.09899538  0.70933201     0.07400
C316        C  0.51060023  0.10148086  0.72540537    -0.02300
Br317      Br  0.48357527  0.15189630  0.76338070    -0.00800
Br318      Br  0.43287853  0.06323509  0.73978217    -0.00900
Br319      Br  0.59703017  0.02893028  0.77143304    -0.00900
Br320      Br  0.56403286  0.46113442  0.66210739    -0.00900
C321        C  0.55382625  0.22481216  0.72482720    -0.02000
C322        C  0.55066426  0.18546531  0.68878849     0.07700
C323        C  0.51922601  0.18715504  0.64567103    -0.02100
C324        C  0.49427813  0.22607878  0.63888989    -0.02100
C325        C  0.49502166  0.26169334  0.68035320     0.07800
C326        C  0.52398992  0.25879433  0.72534445    -0.02300
Br327      Br  0.52321691  0.29931322  0.79172536    -0.00800
Br328      Br  0.60072214  0.24119102  0.76491022    -0.00900
Br329      Br  0.46003185  0.22889159  0.56991881    -0.00900
Br330      Br  0.50847698  0.13659348  0.59286822    -0.00900
C331        C  0.61691262  0.09103790  0.54043100    -0.02000
C332        C  0.60847928  0.12741586  0.49869527     0.07700
C333        C  0.59547129  0.16981195  0.51970093    -0.02100
C334        C  0.59257465  0.17664719  0.58089951    -0.02100
C335        C  0.59493053  0.13815825  0.62419013     0.07800
C336        C  0.61281375  0.09717470  0.60211963    -0.02300
Br337      Br  0.64487723  0.05544491  0.65066697    -0.00800
Br338      Br  0.63656998  0.03227402  0.51432463    -0.00900
Br339      Br  0.59425853  0.24169179  0.60030192    -0.00900
Br340      Br  0.57868880  0.21930003  0.46472782    -0.00900
C341        C  0.86601782  0.36911173  0.23966895    -0.02000
C342        C  0.86718660  0.36974501  0.30375734     0.07700
C343        C  0.90609521  0.37410825  0.32604296    -0.02100
C344        C  0.93711677  0.39020499  0.28943592    -0.02100
C345        C  0.93634151  0.38816562  0.22563172     0.07800
C346        C  0.89728196  0.38503605  0.20336231    -0.02300
Br347      Br  0.87904803  0.41740211  0.13042641    -0.00800
Br348      Br  0.82413855  0.34466922  0.19403224    -0.00900
Br349      Br  0.97663749  0.42043401  0.33366584    -0.00900
Br350      Br  0.92474952  0.34490109  0.40052753    -0.00900
C351        C  0.03843457  0.34745816  0.14737163    -0.02000
C352        C  0.00386750  0.34622499  0.18398276     0.07700
C353        C  0.99931068  0.30325172  0.21794903    -0.02100
C354        C  0.02294156  0.26393174  0.20762728    -0.02100
C355        C  0.05691396  0.26794321  0.17414877     0.07800
C356        C  0.06602083  0.31112320  0.14901917    -0.02300
Br357      Br  0.11888101  0.32248740  0.12344008    -0.00800
Br358      Br  0.05360033  0.39845474  0.09587890    -0.00900
Br359      Br  0.00762531  0.20339899  0.23816144    -0.00900
Br360      Br  0.96267100  0.29226751  0.27969361    -0.00900
C361        C  0.98626842  0.47969326  0.20640764    -0.02000
C362        C  0.00048966  0.43294246  0.20518066     0.07700
C363        C  0.03918212  0.42699119  0.22989384    -0.02100
C364        C  0.06522481  0.46382457  0.22715361    -0.02100
C365        C  0.05229420  0.00840221  0.21063217     0.07800
C366        C  0.01232320  0.01715141  0.20760660    -0.02300
Br367      Br  0.99396330  0.07994984  0.19355023    -0.00800
Br368      Br  0.93297452  0.49619352  0.19530960    -0.00900
Br369      Br  0.11850647  0.45455619  0.25073039    -0.00900
Br370      Br  0.05691384  0.37418830  0.27961615    -0.00900
C371        C  0.94287801  0.35272092  0.09095600    -0.02000
C372        C  0.96202247  0.39276729  0.11382972     0.07700
C373        C  0.96838266  0.42986162  0.06916718    -0.02100
C374        C  0.95644667  0.42612133  0.00892846    -0.02100
C375        C  0.93625716  0.38751335  0.99016767     0.07800
C376        C  0.92924937  0.35138584  0.03176423    -0.02300
Br377      Br  0.89716609  0.30035860  0.00926835    -0.00800
Br378      Br  0.92887075  0.29873783  0.13914923    -0.00900
Br379      Br  0.97046543  0.47383198  0.94937514    -0.00900
Br380      Br  0.99582946  0.48674630  0.07894104    -0.00900
C381        C  0.97507890  0.89083912  0.18346267    -0.02600
C382        C  0.57907498  0.64174424  0.69210487    -0.02600
O383        O  0.63112779  0.65892688  0.40633767    -0.78600
C384        C  0.72429616  0.71050404  0.29322177     0.82400
O385        O  0.57509687  0.67406615  0.20547595    -0.79700
O386        O  0.70401863  0.61057234  0.15489010    -0.81200
O387        O  0.68607420  0.52660725  0.34777501    -0.81000
O388        O  0.61494930  0.58553491  0.41066800    -0.79600
Zn389      Zn  0.64254252  0.67432071  0.31958108     1.55700
O390        O  0.72906432  0.55855790  0.28708723    -0.81000
Cd391      Cd  0.63634474  0.56527210  0.33025066     1.59700
Cd392      Cd  0.61180987  0.61747234  0.20584986     1.59600
O393        O  0.59530109  0.52357965  0.29450253    -0.81000
O394        O  0.64822673  0.61899216  0.27544574    -1.91500
Cd395      Cd  0.70258348  0.61572262  0.24642270     1.59900
O396        O  0.57681633  0.55966314  0.20966247    -0.81000
O397        O  0.73379336  0.67490037  0.26489880    -0.79600
C398        C  0.57295137  0.70671844  0.24139257     0.82900
C399        C  0.61845071  0.62381584  0.43544297     0.82500
O400        O  0.69083950  0.71381641  0.31645562    -0.78600
C401        C  0.72011552  0.52803480  0.32667807     0.83400
O402        O  0.59675224  0.71022344  0.28445873    -0.78700
C403        C  0.57432772  0.52640205  0.24793785     0.83500
C404        C  0.67791391  0.61370730  0.11472379     0.83800
O405        O  0.64208087  0.61754048  0.12697439    -0.81100
C406        C  0.72201120  0.62315030  0.86009986    -0.02600
O407        O  0.92172403  0.84491825  0.90413411    -0.78600
C408        C  0.82494171  0.78200180  0.80842704     0.82400
O409        O  0.97285849  0.80625110  0.71676872    -0.79700
O410        O  0.84510339  0.86285924  0.64161358    -0.81200
O411        O  0.85406086  0.97051460  0.80034399    -0.81000
O412        O  0.91490908  0.92047256  0.89566605    -0.79600
Zn413      Zn  0.90618704  0.82134699  0.82502167     1.55700
O414        O  0.81123581  0.93131732  0.74965571    -0.81000
Cd415      Cd  0.90350669  0.93071468  0.80577461     1.59700
Cd416      Cd  0.93671332  0.86484056  0.70092797     1.59600
O417        O  0.94772222  0.96830538  0.76662353    -0.81000
O418        O  0.89733723  0.87109434  0.76595356    -1.91500
Cd419      Cd  0.84306873  0.87027158  0.73294283     1.59900
O420        O  0.97111501  0.92374099  0.69603580    -0.81000
O421        O  0.81468575  0.81354639  0.77024437    -0.79600
C422        C  0.97489277  0.77770356  0.76136030     0.82900
C423        C  0.92334256  0.88420931  0.92685606     0.82500
O424        O  0.85838193  0.78130873  0.83283350    -0.78600
C425        C  0.82056436  0.96706858  0.77754139     0.83400
O426        O  0.95131427  0.78147043  0.80380288    -0.78700
C427        C  0.97145185  0.96080339  0.72486827     0.83500
C428        C  0.87252507  0.85956203  0.60426907     0.83800
O429        O  0.90815694  0.85950174  0.61963108    -0.81100
C430        C  0.82859041  0.86673301  0.34604523    -0.02600
C431        C  0.46798441  0.86581971  0.25013835    -0.02600
C432        C  0.08074249  0.61088560  0.73866749    -0.02600
O433        O  0.12995720  0.58558669  0.02342557    -0.78600
C434        C  0.23081888  0.54030795  0.12476661     0.82400
O435        O  0.08152235  0.58148072  0.22325431    -0.79700
O436        O  0.21100604  0.63354609  0.27445428    -0.81200
O437        O  0.19705433  0.72374266  0.08638760    -0.81000
O438        O  0.13496596  0.66114320  0.00488787    -0.79600
Zn439      Zn  0.14625887  0.57388797  0.10960651     1.55700
O440        O  0.23890358  0.68735056  0.14838709    -0.81000
Cd441      Cd  0.14765299  0.68342149  0.09010613     1.59700
Cd442      Cd  0.11940410  0.63655779  0.21758683     1.59600
O443        O  0.10222893  0.72497907  0.11783569    -0.81000
O444        O  0.15586999  0.63056979  0.14924950    -1.91500
Cd445      Cd  0.21023960  0.63062099  0.18175562     1.59900
O446        O  0.08849119  0.69794455  0.20881921    -0.81000
O447        O  0.24189460  0.57408082  0.15456232    -0.79600
C448        C  0.08085686  0.54442914  0.19472052     0.82900
C449        C  0.12805305  0.62070845  0.98770586     0.82500
O450        O  0.19590459  0.53675334  0.10720918    -0.78600
C451        C  0.23004400  0.72053712  0.11209384     0.83400
O452        O  0.10440423  0.53710922  0.15252352    -0.78700
C453        C  0.08380320  0.72787230  0.16650345     0.83500
C454        C  0.18413129  0.63751425  0.31268067     0.83800
O455        O  0.14852909  0.63859790  0.29785121    -0.81100
C456        C  0.21827065  0.65860575  0.57201430    -0.02600
O457        O  0.34801775  0.81318014  0.60374423    -0.78600
C458        C  0.41520450  0.90180060  0.49136679     0.82400
O459        O  0.47091977  0.83697704  0.70774196    -0.79700
O460        O  0.45063967  0.99472181  0.63043787    -0.81200
O461        O  0.31964206  0.96976275  0.67398699    -0.81000
O462        O  0.30514880  0.85724749  0.64781913    -0.79600
Zn463      Zn  0.39844390  0.84627149  0.60609007     1.55700
O464        O  0.35591355  0.00217913  0.60338611    -0.81000
Cd465      Cd  0.34315945  0.90382170  0.68568319     1.59700
Cd466      Cd  0.43706051  0.89659842  0.71324945     1.59600
O467        O  0.34801380  0.89050414  0.77566863    -0.81000
O468        O  0.39583820  0.90103850  0.65068788    -1.91500
Cd469      Cd  0.40361323  0.95828146  0.60021861     1.59900
O470        O  0.41074186  0.89849329  0.79525093    -0.81000
O471        O  0.41281484  0.94140812  0.51348823    -0.79600
C472        C  0.46704324  0.80216058  0.67579373     0.82900
C473        C  0.31320580  0.82199513  0.61791474     0.82500
O474        O  0.41080533  0.86449614  0.52201534    -0.78600
C475        C  0.32658877  0.00308419  0.63733703     0.83400
O476        O  0.43960835  0.80192230  0.63812975    -0.78700
C477        C  0.37588027  0.89388932  0.81238382     0.83500
C478        C  0.47465860  0.98769272  0.67305404     0.83800
O479        O  0.47381713  0.95185923  0.70731818    -0.81100
C480        C  0.33200871  0.88100254  0.06761304    -0.02600
C481        C  0.39340531  0.87692172  0.91987869    -0.02000
C482        C  0.36688625  0.89373307  0.87669445     0.07700
C483        C  0.33134338  0.91166210  0.89562550    -0.02100
C484        C  0.31889039  0.90237584  0.95401352    -0.02100
C485        C  0.34590811  0.88775333  0.00046871     0.07800
C486        C  0.38526621  0.88165550  0.98048542    -0.02300
Br487      Br  0.43145218  0.89196841  0.02523485    -0.00800
Br488      Br  0.44117857  0.84641903  0.89767089    -0.00900
Br489      Br  0.26351272  0.90432837  0.96143735    -0.00900
Br490      Br  0.30009959  0.95176886  0.84301564    -0.00900
C491        C  0.28839236  0.76495320  0.54673576    -0.02000
C492        C  0.28251141  0.78972674  0.59829336     0.07700
C493        C  0.24877356  0.78074853  0.63104004    -0.02100
C494        C  0.22360002  0.74516017  0.61465669    -0.02100
C495        C  0.23684720  0.70924356  0.57609194     0.07800
C496        C  0.26895301  0.72314141  0.53865657    -0.02300
Br497      Br  0.29354542  0.68542053  0.48090560    -0.00800
Br498      Br  0.32371388  0.78842588  0.48647696    -0.00900
Br499      Br  0.17045358  0.75663964  0.63772100    -0.00900
Br500      Br  0.23635410  0.81654677  0.69925747    -0.00900
C501        C  0.28651980  0.62641265  0.61899194    -0.02000
C502        C  0.24699522  0.61928906  0.59966393     0.07700
C503        C  0.23438804  0.57190789  0.60674627    -0.02100
C504        C  0.25917797  0.03644706  0.63000698    -0.02100
C505        C  0.29919684  0.54344023  0.63236397     0.07800
C506        C  0.31276542  0.58870258  0.62535217    -0.02300
Br507      Br  0.36786699  0.60009172  0.62567898    -0.00800
Br508      Br  0.30800186  0.68220012  0.64952113    -0.00900
Br509      Br  0.23796824  0.97642809  0.65113012    -0.00900
Br510      Br  0.18922539  0.54765795  0.56888028    -0.00900
C511        C  0.18425807  0.68319350  0.40421361    -0.02000
C512        C  0.19430123  0.64266751  0.37620157     0.07700
C513        C  0.21479859  0.60801363  0.40797922    -0.02100
C514        C  0.22683780  0.61411949  0.46729989    -0.02100
C515        C  0.21144727  0.65208502  0.50156182     0.07800
C516        C  0.19185181  0.68797370  0.46545895    -0.02300
Br517      Br  0.17010221  0.74358860  0.49605342    -0.00800
Br518      Br  0.15876175  0.73240913  0.35707610    -0.00900
Br519      Br  0.27188703  0.57513834  0.48669209    -0.00900
Br520      Br  0.22662334  0.55137318  0.36824207    -0.00900
C521        C  0.27056831  0.76829017  0.04256303    -0.02000
C522        C  0.25889860  0.75693493  0.10055005     0.07700
C523        C  0.27466321  0.78038995  0.14787842    -0.02100
C524        C  0.29691111  0.82012326  0.13685938    -0.02100
C525        C  0.30882099  0.83410278  0.07763149     0.07800
C526        C  0.29830572  0.80286420  0.03148279    -0.02300
Br527      Br  0.32359647  0.79668530  0.95537334    -0.00800
Br528      Br  0.24952302  0.73388818  0.97798413    -0.00900
Br529      Br  0.30171416  0.85895534  0.20385539    -0.00900
Br530      Br  0.26147785  0.76142040  0.22865365    -0.00900
C531        C  0.29087959  0.50928183  0.07595562    -0.02000
C532        C  0.25818572  0.50259740  0.11168298     0.07700
C533        C  0.24801283  0.95791532  0.12936721    -0.02100
C534        C  0.26550327  0.92032819  0.10326938    -0.02100
C535        C  0.30411284  0.92426308  0.07906111     0.07800
C536        C  0.31529211  0.97109192  0.06323634    -0.02300
Br537      Br  0.36453452  0.98683188  0.02807729    -0.00800
Br538      Br  0.30205992  0.57084460  0.04576584    -0.00900
Br539      Br  0.22734057  0.87311703  0.08940986    -0.00900
Br540      Br  0.20982728  0.94788665  0.19023271    -0.00900
C541        C  0.11758110  0.60974263  0.63218344    -0.02000
C542        C  0.11535923  0.62300590  0.69322952     0.07700
C543        C  0.14517961  0.65411478  0.70883856    -0.02100
C544        C  0.17974302  0.65718071  0.67489375    -0.02100
C545        C  0.17933734  0.65177255  0.61171168     0.07800
C546        C  0.14337754  0.63275100  0.59139352    -0.02300
Br547      Br  0.12526864  0.63408847  0.50983621    -0.00800
Br548      Br  0.08688518  0.56220496  0.59671828    -0.00900
Br549      Br  0.22543990  0.67085936  0.71995127    -0.00900
Br550      Br  0.14057790  0.69504581  0.77489650    -0.00900
C551        C  0.13838657  0.59552633  0.82337715    -0.02000
C552        C  0.09831136  0.59613524  0.80411811     0.07700
C553        C  0.07311884  0.58603578  0.85227210    -0.02100
C554        C  0.08031096  0.60369984  0.90822594    -0.02100
C555        C  0.11831403  0.61352606  0.92449405     0.07800
C556        C  0.14777574  0.60607973  0.88295359    -0.02300
Br557      Br  0.20098324  0.60891365  0.90930161    -0.00800
Br558      Br  0.18148689  0.57246099  0.77809936    -0.00900
Br559      Br  0.03957884  0.60327841  0.96632546    -0.00900
Br560      Br  0.05500556  0.52367771  0.86203948    -0.00900
C561        C  0.41800273  0.91146238  0.17632112    -0.02000
C562        C  0.43389947  0.86880613  0.19967894     0.07700
C563        C  0.41662851  0.82935725  0.17221348    -0.02100
C564        C  0.38985454  0.83533583  0.12389054    -0.02100
C565        C  0.36782042  0.87749367  0.11412839     0.07800
C566        C  0.38061896  0.91348850  0.15132863    -0.02300
Br567      Br  0.35014083  0.96168458  0.18547802    -0.00800
Br568      Br  0.44922013  0.95975307  0.14091179    -0.00900
Br569      Br  0.38797885  0.78504978  0.07003432    -0.00900
Br570      Br  0.42248520  0.76524370  0.19985320    -0.00900
C571        C  0.47900807  0.87811597  0.36361244    -0.02000
C572        C  0.45235485  0.86981854  0.31584066     0.07700
C573        C  0.41213387  0.87003847  0.33173928    -0.02100
C574        C  0.39979872  0.88642906  0.38666157    -0.02100
C575        C  0.42682340  0.89782970  0.42957114     0.07800
C576        C  0.46617144  0.89468208  0.41775503    -0.02300
Br577      Br  0.50262889  0.91322821  0.47767408    -0.00800
Br578      Br  0.53285027  0.86086391  0.36309594    -0.00900
Br579      Br  0.34541071  0.89500788  0.40338885    -0.00900
Br580      Br  0.37421290  0.83506105  0.29263705    -0.00900
C581        C  0.99111706  0.53966429  0.68784372    -0.02000
C582        C  0.00132106  0.99579533  0.71191640     0.07700
C583        C  0.04002324  0.98615624  0.72626608    -0.02100
C584        C  0.06720929  0.52218929  0.72537581    -0.02100
C585        C  0.05518689  0.56951401  0.71660222     0.07800
C586        C  0.01814654  0.57584630  0.68723450    -0.02300
Br587      Br  0.00353637  0.63038520  0.64000778    -0.00800
Br588      Br  0.93958778  0.54961711  0.65610233    -0.00900
Br589      Br  0.12025946  0.50295850  0.72932158    -0.00900
Br590      Br  0.05518220  0.92382811  0.75076224    -0.00900
C591        C  0.03686372  0.73998291  0.72725160    -0.02000
C592        C  0.00383027  0.73801049  0.76287467     0.07700
C593        C  0.99648822  0.69601939  0.79433479    -0.02100
C594        C  0.01867141  0.65544374  0.78397057    -0.02100
C595        C  0.05255342  0.65592188  0.74584677     0.07800
C596        C  0.05738826  0.69949526  0.71294978    -0.02300
Br597      Br  0.07807636  0.70644736  0.63365655    -0.00800
Br598      Br  0.05588545  0.79939052  0.69886093    -0.00900
Br599      Br  0.99164047  0.60024936  0.81045710    -0.00900
Br600      Br  0.95527775  0.69258837  0.85310213    -0.00900
C601        C  0.85116956  0.81897643  0.51388674    -0.02000
C602        C  0.86250699  0.85923432  0.54037928     0.07700
C603        C  0.86300709  0.90035697  0.50678444    -0.02100
C604        C  0.85614506  0.90083457  0.44507348    -0.02100
C605        C  0.84057044  0.86113936  0.41566289     0.07800
C606        C  0.83587180  0.82040081  0.45523866    -0.02300
Br607      Br  0.80306863  0.76785663  0.44419707    -0.00800
Br608      Br  0.85643320  0.76152930  0.56036932    -0.00900
Br609      Br  0.87530226  0.95595054  0.40525482    -0.00900
Br610      Br  0.87456012  0.95655578  0.54701466    -0.00900
C611        C  0.80711709  0.55093331  0.78820909    -0.02000
C612        C  0.79263489  0.00615964  0.78646070     0.07700
C613        C  0.75472670  0.99897877  0.80603933    -0.02100
C614        C  0.73264405  0.53551939  0.83050945    -0.02100
C615        C  0.74842127  0.58090396  0.83831874     0.07800
C616        C  0.78839821  0.58524792  0.82046022    -0.02300
Br617      Br  0.82540410  0.62713106  0.85126408    -0.00800
Br618      Br  0.85309614  0.56575230  0.74313750    -0.00900
Br619      Br  0.68328992  0.51750010  0.86037100    -0.00900
Br620      Br  0.73360672  0.93758625  0.80293766    -0.00900
C621        C  0.74516379  0.69614931  0.79672780    -0.02000
C622        C  0.74463580  0.67136151  0.85249400     0.07700
C623        C  0.76705643  0.69319038  0.89845033    -0.02100
C624        C  0.78903780  0.73299369  0.88404953    -0.02100
C625        C  0.79719972  0.74501195  0.82451316     0.07800
C626        C  0.77733964  0.72207621  0.78049642    -0.02300
Br627      Br  0.78744952  0.73309813  0.69739070    -0.00800
Br628      Br  0.70098403  0.73367515  0.77440478    -0.00900
Br629      Br  0.80800319  0.77101102  0.94573307    -0.00900
Br630      Br  0.77894914  0.66760293  0.97740279    -0.00900
C631        C  0.53799182  0.90701630  0.22754938    -0.02000
C632        C  0.49708493  0.90926993  0.24395890     0.07700
C633        C  0.48420996  0.95479732  0.26234782    -0.02100
C634        C  0.50907446  0.49301114  0.26089794    -0.02100
C635        C  0.54648644  0.48925282  0.23902787     0.07800
C636        C  0.55953112  0.94752165  0.21762471    -0.02300
Br637      Br  0.61004529  0.94632991  0.18005958    -0.00800
Br638      Br  0.57373252  0.85468947  0.23541608    -0.00900
Br639      Br  0.49233716  0.55262680  0.28839813    -0.00900
Br640      Br  0.43236969  0.97015528  0.28937876    -0.00900
C641        C  0.53245985  0.76733601  0.18587834    -0.02000
C642        C  0.54015640  0.73974580  0.23704984     0.07700
C643        C  0.51649379  0.74372645  0.28645702    -0.02100
C644        C  0.49029559  0.78102014  0.29008371    -0.02100
C645        C  0.48963073  0.81771451  0.24430264     0.07800
C646        C  0.50744277  0.80628405  0.18896293    -0.02300
Br647      Br  0.50439813  0.84672462  0.11881561    -0.00800
Br648      Br  0.55986066  0.75494402  0.11371685    -0.00900
Br649      Br  0.45269031  0.77192948  0.35323255    -0.00900
Br650      Br  0.51768322  0.69363281  0.34628518    -0.00900
C651        C  0.71147041  0.57895438  0.02853828    -0.02000
C652        C  0.68955004  0.61496707  0.05164395     0.07700
C653        C  0.68027599  0.65387584  0.01561140    -0.02100
C654        C  0.68935808  0.65530357  0.95474658    -0.02100
C655        C  0.71121771  0.61839757  0.92835890     0.07800
C656        C  0.72489353  0.58178757  0.96930795    -0.02300
Br657      Br  0.76927673  0.54160964  0.95681317    -0.00800
Br658      Br  0.72443304  0.52596028  0.08032337    -0.00900
Br659      Br  0.66903363  0.70879527  0.91039820    -0.00900
Br660      Br  0.65683600  0.70708771  0.05153055    -0.00900
C661        C  0.76766386  0.91424861  0.38318830    -0.02000
C662        C  0.80207550  0.91284034  0.34629460     0.07700
C663        C  0.81011878  0.95592553  0.31495710    -0.02100
C664        C  0.78712415  0.49555898  0.32226728    -0.02100
C665        C  0.74988269  0.49207009  0.34527057     0.07800
C666        C  0.74113168  0.95215972  0.37970789    -0.02300
Br667      Br  0.69386751  0.94955850  0.42580591    -0.00800
Br668      Br  0.75138157  0.86366182  0.43476756    -0.00900
Br669      Br  0.80949515  0.55628380  0.31030335    -0.00900
Br670      Br  0.85094013  0.96855951  0.26093582    -0.00900
C671        C  0.76340423  0.83305852  0.29777379    -0.02000
C672        C  0.80228348  0.82603705  0.32189793     0.07700
C673        C  0.81712220  0.77983890  0.31689397    -0.02100
C674        C  0.79212717  0.74239447  0.30657669    -0.02100
C675        C  0.75197917  0.74976431  0.29814440     0.07800
C676        C  0.73823354  0.79553727  0.29134627    -0.02300
Br677      Br  0.68495535  0.80731604  0.26631441    -0.00800
Br678      Br  0.74516954  0.88923353  0.25500544    -0.00900
Br679      Br  0.81287374  0.68016962  0.31183623    -0.00900
Br680      Br  0.87086707  0.76422246  0.33037091    -0.00900
C681        C  0.61146979  0.63324672  0.80012037    -0.02000
C682        C  0.61552325  0.64189258  0.73759523     0.07700
C683        C  0.65504176  0.64534047  0.71875852    -0.02100
C684        C  0.68648409  0.62954440  0.75517624    -0.02100
C685        C  0.68327332  0.62438820  0.81840285     0.07800
C686        C  0.64349668  0.62160801  0.83867359    -0.02300
Br687      Br  0.62732141  0.59348272  0.91488908    -0.00800
Br688      Br  0.56237447  0.64218949  0.83812756    -0.00900
Br689      Br  0.73322168  0.61400116  0.71203001    -0.00900
Br690      Br  0.67142982  0.68053960  0.64860825    -0.00900
C691        C  0.48636704  0.56374365  0.71471837    -0.02000
C692        C  0.50133741  0.52473094  0.68769738     0.07700
C693        C  0.54152746  0.01882287  0.68473423    -0.02100
C694        C  0.56540368  0.55282043  0.70736205    -0.02100
C695        C  0.55148599  0.59885381  0.71009805     0.07400
C696        C  0.51056526  0.60137382  0.72591620    -0.02300
Br697      Br  0.48356178  0.65171666  0.76406895    -0.00800
Br698      Br  0.43269473  0.56339237  0.73931996    -0.00900
Br699      Br  0.59697144  0.52861392  0.77209630    -0.00900
Br700      Br  0.56403609  0.96114114  0.66186263    -0.00900
C701        C  0.55380735  0.72461042  0.72607848    -0.02000
C702        C  0.55074542  0.68535531  0.68983714     0.07700
C703        C  0.51945695  0.68720260  0.64645831    -0.02100
C704        C  0.49473546  0.72628926  0.63939331    -0.02100
C705        C  0.49524132  0.76170177  0.68111479     0.07800
C706        C  0.52397957  0.75862564  0.72643803    -0.02300
Br707      Br  0.52287191  0.79896323  0.79297205    -0.00800
Br708      Br  0.60054063  0.74078399  0.76678159    -0.00900
Br709      Br  0.46140543  0.72984858  0.56939720    -0.00900
Br710      Br  0.50866812  0.63674291  0.59353222    -0.00900
C711        C  0.61697341  0.59115263  0.54136790    -0.02000
C712        C  0.60867819  0.62764386  0.49973079     0.07700
C713        C  0.59589171  0.67010298  0.52088371    -0.02100
C714        C  0.59288665  0.67677189  0.58212165    -0.02100
C715        C  0.59505736  0.63815373  0.62524116     0.07800
C716        C  0.61286545  0.59717692  0.60306424    -0.02300
Br717      Br  0.64487199  0.55531233  0.65151219    -0.00800
Br718      Br  0.63655046  0.53239371  0.51515504    -0.00900
Br719      Br  0.59468636  0.74173453  0.60194929    -0.00900
Br720      Br  0.57965738  0.71997991  0.46609240    -0.00900
C721        C  0.86607169  0.86918795  0.23990648    -0.02000
C722        C  0.86725185  0.86981492  0.30398986     0.07700
C723        C  0.90616942  0.87414861  0.32625292    -0.02100
C724        C  0.93719134  0.89022229  0.28962409    -0.02100
C725        C  0.93638870  0.88820807  0.22581791     0.07800
C726        C  0.89731774  0.88511114  0.20358489    -0.02300
Br727      Br  0.87901858  0.91750586  0.13070896    -0.00800
Br728      Br  0.82432289  0.84446592  0.19426714    -0.00900
Br729      Br  0.97676919  0.92036720  0.33382683    -0.00900
Br730      Br  0.92482171  0.84491891  0.40072673    -0.00900
C731        C  0.03847760  0.84746841  0.14756616    -0.02000
C732        C  0.00389789  0.84624202  0.18414714     0.07700
C733        C  0.99933210  0.80326068  0.21809980    -0.02100
C734        C  0.02294321  0.76392659  0.20773844    -0.02100
C735        C  0.05693394  0.76793817  0.17430168     0.07800
C736        C  0.06606890  0.81113625  0.14926284    -0.02300
Br737      Br  0.11897932  0.82254011  0.12398141    -0.00800
Br738      Br  0.05367597  0.89845525  0.09609610    -0.00900
Br739      Br  0.00757364  0.70338418  0.23815458    -0.00900
Br740      Br  0.96268682  0.79226647  0.27983589    -0.00900
C741        C  0.98625927  0.97973755  0.20641387    -0.02000
C742        C  0.00051089  0.93299270  0.20528387     0.07700
C743        C  0.03920648  0.92709381  0.23002950    -0.02100
C744        C  0.06520373  0.96398055  0.22735744    -0.02100
C745        C  0.05233920  0.50829007  0.21058488     0.07800
C746        C  0.01236305  0.51707937  0.20768954    -0.02300
Br747      Br  0.99401721  0.57991595  0.19401538    -0.00800
Br748      Br  0.93296781  0.99620374  0.19527329    -0.00900
Br749      Br  0.11845479  0.95488618  0.25123239    -0.00900
Br750      Br  0.05702916  0.87426320  0.27963372    -0.00900
C751        C  0.94274474  0.85279727  0.09119798    -0.02000
C752        C  0.96202047  0.89278073  0.11399908     0.07700
C753        C  0.96844531  0.92981708  0.06927313    -0.02100
C754        C  0.95652638  0.92602251  0.00903892    -0.02100
C755        C  0.93603564  0.88760476  0.99045152     0.07800
C756        C  0.92884569  0.85161910  0.03214245    -0.02300
Br757      Br  0.89605810  0.80114643  0.01000209    -0.00800
Br758      Br  0.92891774  0.79870784  0.13930050    -0.00900
Br759      Br  0.97097034  0.97332664  0.94923087    -0.00900
Br760      Br  0.99589732  0.98670586  0.07893457    -0.00900
loop_ 
_geom_bond_atom_site_label_1 
_geom_bond_atom_site_label_2 
_geom_bond_distance 
_geom_bond_site_symmetry_2 
_ccdc_geom_bond_type 
C1          C345   1.649       .  S
C1          C352   1.621   1_655  S
C1          C362   1.609   1_655  S
C1          C372   1.628       .  S
C2          C302   1.622       .  S
C2          C315   1.621       .  S
C2          C322   1.588       .  S
C2          C335   1.616       .  S
O3           C19   1.276       .  A
O3           Zn9   2.034       .  S
C4           O20   1.277       .  A
C4           O17   1.276       .  A
C4          C295   1.507       .  S
O5           C18   1.273       .  A
O5          Cd12   2.061       .  S
O6           C24   1.276       .  A
O6          Cd15   2.079       .  S
O7           C21   1.273       .  A
O7          Cd11   2.065       .  S
O8           C19   1.270       .  A
O8          Cd11   2.066       .  S
Zn9          O20   2.041       .  S
Zn9          O22   2.024       .  S
Zn9          O14   1.931       .  S
O10          C21   1.276       .  A
O10         Cd15   2.066       .  S
Cd11         O13   2.060       .  S
Cd11         O14   2.001       .  S
Cd12         O16   2.084       .  S
Cd12         O25   2.069       .  S
Cd12         O14   2.011       .  S
O13          C23   1.273       .  A
O14         Cd15   1.997       .  S
Cd15         O17   2.099       .  S
O16          C23   1.274       .  A
C18          O22   1.279       .  A
C18         C262   1.474       .  S
C19         C332   1.499       .  S
C21         C285   1.501   1_545  S
C23         C255   1.475   1_545  S
C24          O25   1.275       .  A
C24         C272   1.481       .  S
C26         C235   1.612       .  S
C26         C242   1.618       .  S
C26         C275   1.588       .  S
C26         C305   1.633       .  S
O27          C43   1.271       .  A
O27         Zn33   2.011       .  S
C28          O44   1.278       .  A
C28          O41   1.277       .  A
C28         C245   1.487       .  S
O29          C42   1.279       .  A
O29         Cd36   2.114       .  S
O30          C48   1.277       .  A
O30         Cd39   2.083       .  S
O31          C45   1.272       .  A
O31         Cd35   2.050       .  S
O32          C43   1.272       .  A
O32         Cd35   2.073       .  S
Zn33         O44   2.040       .  S
Zn33         O46   2.001       .  S
Zn33         O38   1.946       .  S
O34          C45   1.279       .  A
O34         Cd39   2.120       .  S
Cd35         O37   2.072       .  S
Cd35         O38   1.995       .  S
Cd36         O40   2.098       .  S
Cd36         O49   2.092       .  S
Cd36         O38   2.019       .  S
O37          C47   1.275       .  A
O38         Cd39   2.016       .  S
Cd39         O41   2.080       .  S
O40          C47   1.279       .  A
C42          O46   1.268       .  A
C42         C212   1.514   1_655  S
C43         C375   1.506       .  S
C45         C232   1.499       .  S
C47         C202   1.481   1_655  S
C48          O49   1.279       .  A
C48         C222   1.482       .  S
C50         C225   1.624       .  S
C50         C282   1.611       .  S
C50         C292   1.613       .  S
C50         C342   1.645       .  S
C51         C182   1.634       .  S
C51         C192   1.589       .  S
C51         C252   1.628       .  S
C51         C265   1.585       .  S
C52         C162   1.614       .  S
C52         C172   1.633       .  S
C52         C205   1.596       .  S
C52         C215   1.632       .  S
O53          C69   1.276   1_554  A
O53         Zn59   2.037       .  S
C54          O70   1.276       .  A
C54          O67   1.273       .  A
C54         C152   1.476       .  S
O55          C68   1.275       .  A
O55         Cd62   2.083       .  S
O56          C74   1.278       .  A
O56         Cd65   2.096       .  S
O57          C71   1.278       .  A
O57         Cd61   2.086       .  S
O58          C69   1.276   1_554  A
O58         Cd61   2.099       .  S
Zn59         O70   2.015       .  S
Zn59         O72   2.038       .  S
Zn59         O64   1.936       .  S
O60          C71   1.273       .  A
O60         Cd65   2.056       .  S
Cd61         O63   2.079       .  S
Cd61         O64   2.009       .  S
Cd62         O66   2.066       .  S
Cd62         O75   2.071       .  S
Cd62         O64   2.008       .  S
O63          C73   1.277       .  A
O64         Cd65   2.015       .  S
Cd65         O67   2.074       .  S
O66          C73   1.274       .  A
C68          O72   1.278       .  A
C68         C365   1.486       .  S
C69         C175   1.488       .  S
C71         C142   1.481       .  S
C73         C355   1.494       .  S
C74          O75   1.274       .  A
C74         C132   1.488       .  S
C76         C115   1.620       .  S
C76         C122   1.607       .  S
C76         C135   1.624       .  S
C76         C165   1.631       .  S
O77          C93   1.272       .  A
O77         Zn83   2.006       .  S
C78          O94   1.273       .  A
C78          O91   1.273       .  A
C78         C195   1.462       .  S
O79          C92   1.273       .  A
O79         Cd86   2.082       .  S
O80          C98   1.276       .  A
O80         Cd89   2.081       .  S
O81          C95   1.274       .  A
O81         Cd85   2.074       .  S
O82          C93   1.276       .  A
O82         Cd85   2.102       .  S
Zn83         O94   1.999       .  S
Zn83         O96   2.016       .  S
Zn83         O88   1.916       .  S
O84          C95   1.275       .  A
O84         Cd89   2.073       .  S
Cd85         O87   2.058       .  S
Cd85         O88   1.991       .  S
Cd86         O90   2.069       .  S
Cd86         O99   2.063       .  S
Cd86         O88   2.001       .  S
O87          C97   1.275       .  A
O88         Cd89   2.001       .  S
Cd89         O91   2.063       .  S
O90          C97   1.275       .  A
C92          O96   1.271       .  A
C92         C325   1.516       .  S
C93         C112   1.503       .  S
C95         C505   1.492       .  S
C97         C102   1.486       .  S
C98          O99   1.272       .  A
C98         C692   1.474       .  S
C100        C105   1.598       .  S
C100        C145   1.600       .  S
C100        C155   1.601       .  S
C100        C185   1.619       .  S
C101        C102   1.403       .  A
C101        C106   1.409       .  A
C101       Br108   1.940       .  S
C102        C103   1.403       .  A
C103        C104   1.406       .  A
C103       Br110   1.943       .  S
C104        C105   1.448   1_556  A
C104       Br109   1.924       .  S
C105        C106   1.446   1_554  A
C106       Br107   1.919   1_556  S
C111        C112   1.405       .  A
C111        C116   1.414       .  A
C111       Br118   1.943       .  S
C112        C113   1.406       .  A
C113        C114   1.420       .  A
C113       Br120   1.937       .  S
C114        C115   1.454       .  A
C114       Br119   1.940       .  S
C115        C116   1.451       .  A
C116       Br117   1.927       .  S
C121        C122   1.453       .  A
C121        C126   1.414       .  A
C121       Br128   1.941       .  S
C122        C123   1.453       .  A
C123        C504   1.412       .  A
C123       Br130   1.932       .  S
C124        C503   1.413       .  A
C124        C505   1.404       .  A
C124       Br129   1.944       .  S
C125        C475   1.492       .  S
C125        C126   1.405       .  A
C125        C504   1.404       .  A
C126       Br127   1.939       .  S
C131        C132   1.397       .  A
C131        C136   1.418       .  A
C131       Br138   1.945       .  S
C132        C133   1.395       .  A
C133        C134   1.418       .  A
C133       Br140   1.942       .  S
C134        C135   1.466       .  A
C134       Br139   1.950       .  S
C135        C136   1.454       .  A
C136       Br137   1.924       .  S
C141        C142   1.400       .  A
C141        C146   1.415       .  A
C141       Br148   1.944   1_554  S
C142        C143   1.402       .  A
C143        C144   1.411       .  A
C143       Br150   1.942       .  S
C144        C145   1.446       .  A
C144       Br149   1.929       .  S
C145        C146   1.456       .  A
C146       Br147   1.944   1_554  S
C151        C152   1.403       .  A
C151        C536   1.422   1_545  A
C151       Br158   1.933       .  S
C152        C533   1.387   1_545  A
C153        C154   1.392       .  A
C153        C532   1.387       .  A
C153       Br160   1.927       .  S
C154        C155   1.450       .  A
C154       Br159   1.950       .  S
C155        C156   1.451       .  A
C156        C531   1.422       .  A
C156       Br157   1.936       .  S
C161        C162   1.447       .  A
C161        C166   1.438       .  A
C161       Br168   1.948       .  S
C162        C163   1.433       .  A
C163        C164   1.425       .  A
C163       Br170   1.948       .  S
C164        C165   1.440       .  A
C164       Br169   1.930       .  S
C165        C166   1.448       .  A
C166       Br167   1.940       .  S
C171        C172   1.451       .  A
C171        C176   1.428       .  A
C171       Br178   1.937       .  S
C172        C173   1.420       .  A
C173        C174   1.403       .  A
C173       Br180   1.929       .  S
C174        C175   1.399       .  A
C174       Br179   1.929       .  S
C175        C176   1.408       .  A
C176       Br177   1.935       .  S
C181        C182   1.428       .  A
C181        C186   1.408       .  A
C181       Br188   1.933       .  S
C182        C183   1.458       .  A
C183        C184   1.431       .  A
C183       Br190   1.947       .  S
C184        C185   1.440       .  A
C184       Br189   1.937       .  S
C185        C186   1.440       .  A
C186       Br187   1.926       .  S
C191        C192   1.444       .  A
C191        C196   1.402       .  A
C191       Br198   1.921       .  S
C192        C193   1.438       .  A
C193        C194   1.411       .  A
C193       Br200   1.905       .  S
C194        C195   1.395       .  A
C194       Br199   1.934       .  S
C195        C196   1.390       .  A
C196       Br197   1.941       .  S
C201        C206   1.417   1_655  A
C201        C582   1.401   1_645  A
C201       Br208   1.931       .  S
C202        C203   1.397       .  A
C202        C581   1.401   1_455  A
C203        C584   1.412       .  A
C203       Br210   1.935       .  S
C204        C205   1.435       .  A
C204        C583   1.412   1_545  A
C204       Br209   1.910       .  S
C205        C206   1.445       .  A
C206       Br207   1.932       .  S
C211        C212   1.401       .  A
C211        C216   1.413       .  A
C211       Br218   1.942       .  S
C212        C213   1.414   1_455  A
C213        C214   1.423   1_655  A
C213       Br220   1.952       .  S
C214        C215   1.457       .  A
C214       Br219   1.943   1_455  S
C215        C216   1.454       .  A
C216       Br217   1.935       .  S
C221        C222   1.394       .  A
C221        C226   1.422       .  A
C221       Br228   1.941       .  S
C222        C223   1.389       .  A
C223        C224   1.411       .  A
C223       Br230   1.944       .  S
C224        C225   1.461       .  A
C224       Br229   1.932       .  S
C225        C226   1.465       .  A
C226       Br227   1.938       .  S
C231        C236   1.408       .  A
C231        C612   1.398       .  A
C231       Br238   1.938       .  S
C232        C233   1.402       .  A
C232        C611   1.398       .  A
C233        C614   1.425       .  A
C233       Br240   1.940       .  S
C234        C235   1.451       .  A
C234        C613   1.425   1_545  A
C234       Br239   1.911       .  S
C235        C236   1.449       .  A
C236       Br237   1.925       .  S
C241        C242   1.426       .  A
C241        C246   1.395       .  A
C241       Br248   1.916       .  S
C242        C243   1.462       .  A
C243        C244   1.421       .  A
C243       Br250   1.943       .  S
C244        C245   1.406       .  A
C244       Br249   1.929       .  S
C245        C246   1.400       .  A
C246       Br247   1.926       .  S
C251        C252   1.466       .  A
C251        C256   1.413       .  A
C251       Br258   1.946       .  S
C252        C253   1.464       .  A
C253        C634   1.416       .  A
C253       Br260   1.947       .  S
C254        C255   1.392       .  A
C254        C633   1.416       .  A
C254       Br259   1.942   1_565  S
C255        C636   1.388       .  A
C256        C635   1.388       .  A
C256       Br257   1.947       .  S
C261        C262   1.401       .  A
C261        C266   1.417       .  A
C261       Br268   1.931       .  S
C262        C263   1.394       .  A
C263        C264   1.406       .  A
C263       Br270   1.945       .  S
C264        C265   1.455       .  A
C264       Br269   1.947       .  S
C265        C266   1.443       .  A
C266       Br267   1.935       .  S
C271        C272   1.400       .  A
C271        C276   1.417   1_554  A
C271       Br278   1.940       .  S
C272        C273   1.398       .  A
C273        C274   1.410   1_554  A
C273       Br280   1.941       .  S
C274        C275   1.450       .  A
C274       Br279   1.935       .  S
C275        C276   1.453       .  A
C276       Br277   1.942       .  S
C281        C282   1.457       .  A
C281        C286   1.421       .  A
C281       Br288   1.931       .  S
C282        C283   1.444       .  A
C283        C664   1.405       .  A
C283       Br290   1.900       .  S
C284        C285   1.394       .  A
C284        C663   1.405       .  A
C284       Br289   1.945   1_565  S
C285        C666   1.408       .  A
C286        C665   1.407       .  A
C286       Br287   1.942       .  S
C291        C292   1.457       .  A
C291        C296   1.417       .  A
C291       Br298   1.956       .  S
C292        C293   1.437       .  A
C293        C294   1.425       .  A
C293       Br300   1.926       .  S
C294        C295   1.412       .  A
C294       Br299   1.932       .  S
C295        C296   1.407       .  A
C296       Br297   1.946       .  S
C301        C302   1.431       .  A
C301        C306   1.433       .  A
C301       Br308   1.924       .  S
C302        C303   1.437       .  A
C303        C304   1.420       .  A
C303       Br310   1.942       .  S
C304        C305   1.434       .  A
C304       Br309   1.947       .  S
C305        C306   1.454       .  A
C306       Br307   1.963       .  S
C311        C312   1.400       .  A
C311        C316   1.416       .  A
C311       Br318   1.940       .  S
C312        C478   1.474   1_545  S
C312        C693   1.399       .  A
C313        C692   1.399       .  A
C313        C694   1.404       .  A
C313       Br320   1.925       .  S
C314        C315   1.417       .  A
C314        C693   1.404       .  A
C314       Br319   1.923       .  S
C315        C316   1.463       .  A
C316       Br317   1.953       .  S
C321        C322   1.433       .  A
C321        C326   1.417       .  A
C321       Br328   1.928       .  S
C322        C323   1.454       .  A
C323        C324   1.414       .  A
C323       Br330   1.965       .  S
C324        C325   1.422       .  A
C324       Br329   1.950       .  S
C325        C326   1.422       .  A
C326       Br327   1.941       .  S
C331        C332   1.413       .  A
C331        C336   1.418       .  A
C331       Br338   1.941       .  S
C332        C333   1.404       .  A
C333        C334   1.407       .  A
C333       Br340   1.941       .  S
C334        C335   1.456       .  A
C334       Br339   1.957       .  S
C335        C336   1.440       .  A
C336       Br337   1.934       .  S
C341        C342   1.447       .  A
C341        C346   1.431       .  A
C341       Br348   1.933       .  S
C342        C343   1.443       .  A
C343        C344   1.430       .  A
C343       Br350   1.955       .  S
C344        C345   1.444       .  A
C344       Br349   1.930       .  S
C345        C346   1.444       .  A
C346       Br347   1.960       .  S
C351        C352   1.457       .  A
C351        C356   1.411       .  A
C351       Br358   1.927       .  S
C352        C353   1.450   1_455  A
C353        C354   1.421   1_655  A
C353       Br360   1.909       .  S
C354        C355   1.404       .  A
C354       Br359   1.944       .  S
C355        C356   1.397       .  A
C356       Br357   1.949       .  S
C361        C362   1.438   1_655  A
C361        C746   1.423   1_655  A
C361       Br368   1.910       .  S
C362        C363   1.452       .  A
C363        C364   1.408       .  A
C363       Br370   1.953       .  S
C364        C745   1.395       .  A
C364       Br369   1.927       .  S
C365        C366   1.402       .  A
C365        C744   1.395   1_545  A
C366        C741   1.423   1_445  A
C366       Br367   1.935   1_455  S
C371        C372   1.457       .  A
C371        C376   1.416       .  A
C371       Br378   1.941       .  S
C372        C373   1.466       .  A
C373        C374   1.427       .  A
C373       Br380   1.937       .  S
C374        C375   1.408   1_554  A
C374       Br379   1.960   1_554  S
C375        C376   1.405   1_556  A
C376       Br377   1.946       .  S
C381        C725   1.649       .  S
C381        C732   1.621   1_655  S
C381        C742   1.609   1_655  S
C381        C752   1.628       .  S
C382        C682   1.622       .  S
C382        C695   1.621       .  S
C382        C702   1.588       .  S
C382        C715   1.616       .  S
O383        C399   1.275       .  A
O383       Zn389   2.033       .  S
C384        O400   1.277       .  A
C384        O397   1.276       .  A
C384        C675   1.507       .  S
O385        C398   1.273       .  A
O385       Cd392   2.060       .  S
O386        C404   1.276       .  A
O386       Cd395   2.078       .  S
O387        C401   1.273       .  A
O387       Cd391   2.067       .  S
O388        C399   1.271       .  A
O388       Cd391   2.066       .  S
Zn389       O400   2.040       .  S
Zn389       O402   2.023       .  S
Zn389       O394   1.931       .  S
O390        C401   1.276       .  A
O390       Cd395   2.064       .  S
Cd391       O393   2.061       .  S
Cd391       O394   2.001       .  S
Cd392       O396   2.083       .  S
Cd392       O405   2.069       .  S
Cd392       O394   2.011       .  S
O393        C403   1.273       .  A
O394       Cd395   1.996       .  S
Cd395       O397   2.097       .  S
O396        C403   1.274       .  A
C398        O402   1.279       .  A
C398        C642   1.474       .  S
C399        C712   1.499       .  S
C401        C665   1.501       .  S
C403        C635   1.476       .  S
C404        O405   1.275       .  A
C404        C652   1.480       .  S
C406        C615   1.611       .  S
C406        C622   1.618       .  S
C406        C655   1.588       .  S
C406        C685   1.632       .  S
O407        C423   1.271       .  A
O407       Zn413   2.010       .  S
C408        O424   1.278       .  A
C408        O421   1.277       .  A
C408        C625   1.487       .  S
O409        C422   1.279       .  A
O409       Cd416   2.113       .  S
O410        C428   1.277       .  A
O410       Cd419   2.082       .  S
O411        C425   1.272       .  A
O411       Cd415   2.049       .  S
O412        C423   1.272       .  A
O412       Cd415   2.074       .  S
Zn413       O424   2.040       .  S
Zn413       O426   2.000       .  S
Zn413       O418   1.946       .  S
O414        C425   1.279       .  A
O414       Cd419   2.119       .  S
Cd415       O417   2.073       .  S
Cd415       O418   1.995       .  S
Cd416       O420   2.098       .  S
Cd416       O429   2.091       .  S
Cd416       O418   2.018       .  S
O417        C427   1.276       .  A
O418       Cd419   2.017       .  S
Cd419       O421   2.082       .  S
O420        C427   1.279       .  A
C422        O426   1.268       .  A
C422        C592   1.514   1_655  S
C423        C755   1.506       .  S
C425        C612   1.499   1_565  S
C427        C582   1.482   1_655  S
C428        O429   1.278       .  A
C428        C602   1.482       .  S
C430        C605   1.624       .  S
C430        C662   1.611       .  S
C430        C672   1.612       .  S
C430        C722   1.645       .  S
C431        C562   1.634       .  S
C431        C572   1.589       .  S
C431        C632   1.628       .  S
C431        C645   1.585       .  S
C432        C542   1.614       .  S
C432        C552   1.633       .  S
C432        C585   1.596       .  S
C432        C595   1.632       .  S
O433        C449   1.275   1_554  A
O433       Zn439   2.036       .  S
C434        O450   1.276       .  A
C434        O447   1.273       .  A
C434        C532   1.476       .  S
O435        C448   1.275       .  A
O435       Cd442   2.083       .  S
O436        C454   1.278       .  A
O436       Cd445   2.097       .  S
O437        C451   1.278       .  A
O437       Cd441   2.086       .  S
O438        C449   1.276   1_554  A
O438       Cd441   2.099       .  S
Zn439       O450   2.015       .  S
Zn439       O452   2.038       .  S
Zn439       O444   1.936       .  S
O440        C451   1.273       .  A
O440       Cd445   2.055       .  S
Cd441       O443   2.080       .  S
Cd441       O444   2.010       .  S
Cd442       O446   2.066       .  S
Cd442       O455   2.072       .  S
Cd442       O444   2.008       .  S
O443        C453   1.277       .  A
O444       Cd445   2.015       .  S
Cd445       O447   2.073       .  S
O446        C453   1.274       .  A
C448        O452   1.278       .  A
C448        C745   1.486       .  S
C449        C555   1.487       .  S
C451        C522   1.481       .  S
C453        C735   1.494       .  S
C454        O455   1.274       .  A
C454        C512   1.488       .  S
C456        C495   1.619       .  S
C456        C502   1.607       .  S
C456        C515   1.625       .  S
C456        C545   1.631       .  S
O457        C473   1.272       .  A
O457       Zn463   2.005       .  S
C458        O474   1.273       .  A
C458        O471   1.273       .  A
C458        C575   1.462       .  S
O459        C472   1.273       .  A
O459       Cd466   2.083       .  S
O460        C478   1.276       .  A
O460       Cd469   2.080       .  S
O461        C475   1.274   1_565  A
O461       Cd465   2.075       .  S
O462        C473   1.276       .  A
O462       Cd465   2.102       .  S
Zn463       O474   2.000       .  S
Zn463       O476   2.017       .  S
Zn463       O468   1.916       .  S
O464        C475   1.275       .  A
O464       Cd469   2.072   1_545  S
Cd465       O467   2.058       .  S
Cd465       O468   1.991       .  S
Cd466       O470   2.069       .  S
Cd466       O479   2.063       .  S
Cd466       O468   2.001       .  S
O467        C477   1.275       .  A
O468       Cd469   2.000       .  S
Cd469       O471   2.061       .  S
O470        C477   1.275       .  A
C472        O476   1.271       .  A
C472        C705   1.516       .  S
C473        C492   1.503       .  S
C477        C482   1.486       .  S
C478        O479   1.272       .  A
C480        C485   1.598       .  S
C480        C525   1.600       .  S
C480        C535   1.602       .  S
C480        C565   1.619       .  S
C481        C482   1.403       .  A
C481        C486   1.409       .  A
C481       Br488   1.940       .  S
C482        C483   1.403       .  A
C483        C484   1.406       .  A
C483       Br490   1.942       .  S
C484        C485   1.448   1_556  A
C484       Br489   1.924       .  S
C485        C486   1.447   1_554  A
C486       Br487   1.919   1_556  S
C491        C492   1.406       .  A
C491        C496   1.414       .  A
C491       Br498   1.943       .  S
C492        C493   1.407       .  A
C493        C494   1.420       .  A
C493       Br500   1.937       .  S
C494        C495   1.454       .  A
C494       Br499   1.940       .  S
C495        C496   1.451       .  A
C496       Br497   1.927       .  S
C501        C502   1.453       .  A
C501        C506   1.414       .  A
C501       Br508   1.941       .  S
C502        C503   1.452       .  A
C503       Br510   1.932       .  S
C504       Br509   1.944   1_545  S
C505        C506   1.405       .  A
C506       Br507   1.939       .  S
C511        C512   1.397       .  A
C511        C516   1.418       .  A
C511       Br518   1.945       .  S
C512        C513   1.395       .  A
C513        C514   1.419       .  A
C513       Br520   1.942       .  S
C514        C515   1.466       .  A
C514       Br519   1.949       .  S
C515        C516   1.454       .  A
C516       Br517   1.925       .  S
C521        C522   1.400       .  A
C521        C526   1.415       .  A
C521       Br528   1.943   1_554  S
C522        C523   1.402       .  A
C523        C524   1.411       .  A
C523       Br530   1.942       .  S
C524        C525   1.445       .  A
C524       Br529   1.929       .  S
C525        C526   1.456       .  A
C526       Br527   1.945   1_554  S
C531        C532   1.403       .  A
C531       Br538   1.933       .  S
C533        C534   1.392       .  A
C533       Br540   1.927       .  S
C534        C535   1.450       .  A
C534       Br539   1.950       .  S
C535        C536   1.451       .  A
C536       Br537   1.936       .  S
C541        C542   1.447       .  A
C541        C546   1.438       .  A
C541       Br548   1.948       .  S
C542        C543   1.433       .  A
C543        C544   1.425       .  A
C543       Br550   1.948       .  S
C544        C545   1.441       .  A
C544       Br549   1.930       .  S
C545        C546   1.448       .  A
C546       Br547   1.940       .  S
C551        C552   1.450       .  A
C551        C556   1.428       .  A
C551       Br558   1.937       .  S
C552        C553   1.421       .  A
C553        C554   1.404       .  A
C553       Br560   1.930       .  S
C554        C555   1.399       .  A
C554       Br559   1.929       .  S
C555        C556   1.408       .  A
C556       Br557   1.935       .  S
C561        C562   1.428       .  A
C561        C566   1.407       .  A
C561       Br568   1.933       .  S
C562        C563   1.458       .  A
C563        C564   1.431       .  A
C563       Br570   1.947       .  S
C564        C565   1.441       .  A
C564       Br569   1.937       .  S
C565        C566   1.439       .  A
C566       Br567   1.926       .  S
C571        C572   1.445       .  A
C571        C576   1.402       .  A
C571       Br578   1.921       .  S
C572        C573   1.438       .  A
C573        C574   1.411       .  A
C573       Br580   1.905       .  S
C574        C575   1.395       .  A
C574       Br579   1.935       .  S
C575        C576   1.390       .  A
C576       Br577   1.941       .  S
C581        C586   1.417   1_655  A
C581       Br588   1.931       .  S
C582        C583   1.397       .  A
C583       Br590   1.935       .  S
C584        C585   1.435       .  A
C584       Br589   1.910       .  S
C585        C586   1.445       .  A
C586       Br587   1.933       .  S
C591        C592   1.401       .  A
C591        C596   1.413       .  A
C591       Br598   1.942       .  S
C592        C593   1.414   1_455  A
C593        C594   1.423   1_655  A
C593       Br600   1.953       .  S
C594        C595   1.457       .  A
C594       Br599   1.943   1_455  S
C595        C596   1.454       .  A
C596       Br597   1.935       .  S
C601        C602   1.394       .  A
C601        C606   1.422       .  A
C601       Br608   1.941       .  S
C602        C603   1.389       .  A
C603        C604   1.411       .  A
C603       Br610   1.944       .  S
C604        C605   1.461       .  A
C604       Br609   1.932       .  S
C605        C606   1.465       .  A
C606       Br607   1.938       .  S
C611        C616   1.408       .  A
C611       Br618   1.937       .  S
C612        C613   1.402   1_545  A
C613       Br620   1.940       .  S
C614        C615   1.451       .  A
C614       Br619   1.911       .  S
C615        C616   1.448       .  A
C616       Br617   1.925       .  S
C621        C622   1.425       .  A
C621        C626   1.395       .  A
C621       Br628   1.917       .  S
C622        C623   1.462       .  A
C623        C624   1.421       .  A
C623       Br630   1.943       .  S
C624        C625   1.406       .  A
C624       Br629   1.929       .  S
C625        C626   1.400       .  A
C626       Br627   1.925       .  S
C631        C632   1.465       .  A
C631        C636   1.413       .  A
C631       Br638   1.946       .  S
C632        C633   1.464       .  A
C633       Br640   1.947       .  S
C634        C635   1.391       .  A
C634       Br639   1.942       .  S
C636       Br637   1.946       .  S
C641        C642   1.401       .  A
C641        C646   1.417       .  A
C641       Br648   1.931       .  S
C642        C643   1.394       .  A
C643        C644   1.406       .  A
C643       Br650   1.945       .  S
C644        C645   1.454       .  A
C644       Br649   1.947       .  S
C645        C646   1.443       .  A
C646       Br647   1.935       .  S
C651        C652   1.401       .  A
C651        C656   1.417   1_554  A
C651       Br658   1.941       .  S
C652        C653   1.398       .  A
C653        C654   1.410   1_554  A
C653       Br660   1.941       .  S
C654        C655   1.450       .  A
C654       Br659   1.935       .  S
C655        C656   1.453       .  A
C656       Br657   1.942       .  S
C661        C662   1.457       .  A
C661        C666   1.421       .  A
C661       Br668   1.930       .  S
C662        C663   1.444       .  A
C663       Br670   1.901       .  S
C664        C665   1.395       .  A
C664       Br669   1.946       .  S
C666       Br667   1.943       .  S
C671        C672   1.457       .  A
C671        C676   1.416       .  A
C671       Br678   1.956       .  S
C672        C673   1.437       .  A
C673        C674   1.425       .  A
C673       Br680   1.926       .  S
C674        C675   1.412       .  A
C674       Br679   1.932       .  S
C675        C676   1.407       .  A
C676       Br677   1.946       .  S
C681        C682   1.431       .  A
C681        C686   1.433       .  A
C681       Br688   1.925       .  S
C682        C683   1.437       .  A
C683        C684   1.419       .  A
C683       Br690   1.942       .  S
C684        C685   1.434       .  A
C684       Br689   1.947       .  S
C685        C686   1.454       .  A
C686       Br687   1.963       .  S
C691        C692   1.401       .  A
C691        C696   1.416       .  A
C691       Br698   1.940       .  S
C693       Br700   1.926   1_545  S
C694        C695   1.417       .  A
C694       Br699   1.924       .  S
C695        C696   1.463       .  A
C696       Br697   1.953       .  S
C701        C702   1.433       .  A
C701        C706   1.417       .  A
C701       Br708   1.928       .  S
C702        C703   1.455       .  A
C703        C704   1.414       .  A
C703       Br710   1.965       .  S
C704        C705   1.421       .  A
C704       Br709   1.949       .  S
C705        C706   1.422       .  A
C706       Br707   1.940       .  S
C711        C712   1.413       .  A
C711        C716   1.418       .  A
C711       Br718   1.940       .  S
C712        C713   1.405       .  A
C713        C714   1.407       .  A
C713       Br720   1.941       .  S
C714        C715   1.456       .  A
C714       Br719   1.957       .  S
C715        C716   1.439       .  A
C716       Br717   1.934       .  S
C721        C722   1.447       .  A
C721        C726   1.431       .  A
C721       Br728   1.933       .  S
C722        C723   1.443       .  A
C723        C724   1.430       .  A
C723       Br730   1.955       .  S
C724        C725   1.444       .  A
C724       Br729   1.930       .  S
C725        C726   1.444       .  A
C726       Br727   1.960       .  S
C731        C732   1.457       .  A
C731        C736   1.411       .  A
C731       Br738   1.927       .  S
C732        C733   1.450   1_455  A
C733        C734   1.421   1_655  A
C733       Br740   1.909       .  S
C734        C735   1.404       .  A
C734       Br739   1.944       .  S
C735        C736   1.397       .  A
C736       Br737   1.949       .  S
C741        C742   1.438   1_655  A
C741       Br748   1.910       .  S
C742        C743   1.453       .  A
C743        C744   1.409       .  A
C743       Br750   1.953       .  S
C744       Br749   1.928       .  S
C745        C746   1.403       .  A
C746       Br747   1.935   1_455  S
C751        C752   1.457       .  A
C751        C756   1.416       .  A
C751       Br758   1.941       .  S
C752        C753   1.466       .  A
C753        C754   1.427       .  A
C753       Br760   1.937       .  S
C754        C755   1.407   1_554  A
C754       Br759   1.960   1_554  S
C755        C756   1.404   1_556  A
C756       Br757   1.946       .  S
