geometry optimzed in LAMMPS
_audit_creation_date              2020-11-30 
_audit_creation_method            'lammps2cif' 
_symmetry_space_group_name_H-M    'P1' 
_symmetry_Int_Tables_number       1 
_symmetry_cell_setting            triclinic 
loop_ 
_symmetry_equiv_pos_as_xyz 
  x,y,z 
_cell_length_a                    83.12765218 
_cell_length_b                    83.10481380479861 
_cell_length_c                    44.2446596499227 
_cell_angle_alpha                 90.23175223911808 
_cell_angle_beta                  90.24145126023681 
_cell_angle_gamma                 90.0276611251294 
loop_ 
_atom_site_label 
_atom_site_type_symbol 
_atom_site_fract_x 
_atom_site_fract_y 
_atom_site_fract_z 
_atom_site_charge 
C1          C  0.39532575  0.34096936  0.32237629     0.86500
C2          C  0.37757551  0.34493855  0.31561588    -0.53700
C3          C  0.36693084  0.33806357  0.33520738     0.09400
C4          C  0.37502925  0.32776499  0.35974035     0.20400
C5          C  0.39760327  0.34632350  0.35560653    -0.54500
C6          C  0.38688299  0.33947243  0.37510389     0.09500
C7          C  0.39607456  0.32254105  0.32326339    -0.54000
C8          C  0.38551592  0.31543366  0.34264640     0.10100
H9          H  0.37382056  0.35276278  0.29729930     0.14600
H10         H  0.36632889  0.32249313  0.37580437     0.00300
H11         H  0.40615601  0.35527766  0.36328287     0.14900
H12         H  0.40398866  0.31576462  0.30850473     0.14700
C13         C  0.34200178  0.39139021  0.68005006     0.86500
C14         C  0.34800352  0.37577308  0.69499153    -0.53700
C15         C  0.34233799  0.36206900  0.68162361     0.09400
C16         C  0.33134457  0.36515656  0.65428394     0.20400
C17         C  0.34704641  0.38954516  0.64662820    -0.54500
C18         C  0.34161326  0.37566655  0.63329703     0.09500
C19         C  0.32357926  0.38990980  0.67940964    -0.54000
C20         C  0.31785808  0.37625238  0.66584648     0.10100
H21         H  0.35614365  0.37559800  0.71425642     0.14600
H22         H  0.32696134  0.35402200  0.64311680     0.00300
H23         H  0.35501284  0.39765749  0.63484763     0.14900
H24         H  0.31580293  0.39892731  0.68948240     0.14700
C25         C  0.35002755  0.14219486  0.33234760     0.86500
C26         C  0.35575623  0.15899894  0.32216611    -0.53700
C27         C  0.34968328  0.17137530  0.33912253     0.09400
C28         C  0.33876952  0.16582451  0.36500623     0.20400
C29         C  0.35499932  0.14145270  0.36593380    -0.54500
C30         C  0.34918740  0.15388968  0.38295109     0.09500
C31         C  0.33156257  0.14334363  0.33269015    -0.54000
C32         C  0.32558116  0.15581975  0.34933312     0.10100
H33         H  0.36357291  0.16090895  0.30290972     0.14600
H34         H  0.33423237  0.17594468  0.37896543     0.00300
H35         H  0.36295710  0.13253666  0.37560245     0.14900
H36         H  0.32392222  0.13515724  0.31990761     0.14700
C37         C  0.38724334  0.19303398  0.69853209     0.86500
C38         C  0.37102360  0.18525923  0.70657350    -0.53700
C39         C  0.35829036  0.19070725  0.68979126     0.09400
C40         C  0.36305434  0.20359715  0.66647366     0.20400
C41         C  0.38893848  0.18995470  0.66425185    -0.54500
C42         C  0.37620236  0.19537770  0.64748000     0.09500
C43         C  0.38438758  0.21118373  0.70124478    -0.54000
C44         C  0.37183307  0.21689985  0.68455149     0.10100
H45         H  0.36983343  0.17616386  0.72396491     0.14600
H46         H  0.35283302  0.20791965  0.65260799     0.00300
H47         H  0.39889380  0.18374711  0.65376278     0.14900
H48         H  0.39168898  0.21879247  0.71584616     0.14700
C49         C  0.15194288  0.19337964  0.32821234     0.86500
C50         C  0.16846290  0.18747151  0.31675177    -0.53700
C51         C  0.18127685  0.19310510  0.33325687     0.09400
C52         C  0.17631461  0.20413972  0.35957319     0.20400
C53         C  0.15177826  0.18825007  0.36172148    -0.54500
C54         C  0.16467531  0.19369186  0.37803397     0.09500
C55         C  0.15331664  0.21179366  0.32907482    -0.54000
C56         C  0.16604709  0.21765117  0.34532828     0.10100
H57         H  0.16981056  0.17927892  0.29775242     0.14600
H58         H  0.18653393  0.20850658  0.37338528     0.00300
H59         H  0.14330185  0.17986603  0.37137003     0.14900
H60         H  0.14504344  0.21940940  0.31663788     0.14700
C61         C  0.18964467  0.13963273  0.69271576     0.86500
C62         C  0.18427082  0.15689095  0.70083959    -0.53700
C63         C  0.19092005  0.16849649  0.68296423     0.09400
C64         C  0.20215681  0.16178948  0.65844609     0.20400
C65         C  0.18519581  0.13791799  0.65894019    -0.54500
C66         C  0.19166959  0.14960016  0.64105851     0.09500
C67         C  0.20812345  0.14016963  0.69329892    -0.54000
C68         C  0.21476569  0.15178830  0.67562089     0.10100
H69         H  0.17603395  0.15964561  0.71912724     0.14600
H70         H  0.20726971  0.17134236  0.64392995     0.00300
H71         H  0.17720069  0.12888086  0.64965672     0.14900
H72         H  0.21530312  0.13198783  0.70686988     0.14700
C73         C  0.19922345  0.39271060  0.33199533     0.86500
C74         C  0.19349799  0.37588380  0.32171186    -0.53700
C75         C  0.19919018  0.36350226  0.33896936     0.09400
C76         C  0.21018335  0.36912732  0.36499580     0.20400
C77         C  0.19402562  0.39360431  0.36544899    -0.54500
C78         C  0.19954404  0.38106625  0.38261053     0.09500
C79         C  0.21760055  0.39161572  0.33307628    -0.54000
C80         C  0.22351288  0.37936366  0.35025585     0.10100
H81         H  0.18531800  0.37402495  0.30281985     0.14600
H82         H  0.21483683  0.35924141  0.37932945     0.00300
H83         H  0.18549124  0.40223379  0.37432112     0.14900
H84         H  0.22525004  0.39968765  0.32030819     0.14700
C85         C  0.14562500  0.33930912  0.68662490     0.86500
C86         C  0.16333146  0.34383826  0.69362636    -0.53700
C87         C  0.17420157  0.33654676  0.67491924     0.09400
C88         C  0.16651029  0.32545182  0.65104039     0.20400
C89         C  0.14357070  0.34363894  0.65309500    -0.54500
C90         C  0.15454739  0.33648135  0.63449259     0.09500
C91         C  0.14539147  0.32083859  0.68757753    -0.54000
C92         C  0.15617310  0.31340376  0.66893581     0.10100
H93         H  0.16723164  0.35222606  0.71092555     0.14600
H94         H  0.17540739  0.31991914  0.63556495     0.00300
H95         H  0.13457034  0.35206505  0.64496490     0.14900
H96         H  0.13748870  0.31431130  0.70266038     0.14700
C97         C  0.89739274  0.69409808  0.33387048     0.86500
C98         C  0.89927747  0.69040351  0.36763540    -0.53700
C99         C  0.88786901  0.69739535  0.38546167     0.09400
C100        C  0.87560980  0.70763650  0.36783086     0.20400
C101        C  0.87993475  0.68894776  0.32624511    -0.54500
C102        C  0.86855212  0.69605012  0.34409758     0.09500
C103        C  0.89698989  0.71254909  0.33189262    -0.54000
C104        C  0.88552400  0.71978055  0.34934535     0.10100
H105        H  0.90862871  0.68260026  0.37653699     0.14600
H106        H  0.86627024  0.71300735  0.38250312     0.00300
H107        H  0.87651394  0.68086760  0.30813380     0.14900
H108        H  0.90511410  0.71919885  0.31743123     0.14700
C109        C  0.83683532  0.64526986  0.68748391     0.86500
C110        C  0.84427584  0.64426453  0.65559374    -0.53700
C111        C  0.84043772  0.65704726  0.63755340     0.09400
C112        C  0.82921224  0.66936737  0.65273670     0.20400
C113        C  0.84239112  0.66179087  0.69957699    -0.54500
C114        C  0.83826263  0.67442831  0.68160474     0.09500
C115        C  0.81869888  0.64710801  0.68189232    -0.54000
C116        C  0.81450632  0.65968386  0.66363945     0.10100
H117        H  0.85269432  0.63511858  0.64831293     0.14600
H118        H  0.82623905  0.67953335  0.63765115     0.00300
H119        H  0.84894426  0.66331978  0.72068357     0.14900
H120        H  0.80998497  0.63931239  0.69266901     0.14700
C121        C  0.69871549  0.64699005  0.30988498     0.86500
C122        C  0.69350983  0.64606011  0.34329561    -0.53700
C123        C  0.69964598  0.65810200  0.36101120     0.09400
C124        C  0.71069513  0.66974178  0.34396883     0.20400
C125        C  0.69381914  0.66410815  0.30016794    -0.54500
C126        C  0.70018542  0.67597163  0.31801180     0.09500
C127        C  0.71721574  0.64728561  0.31119905    -0.54000
C128        C  0.72364207  0.65920230  0.32893042     0.10100
H129        H  0.68494785  0.63754486  0.35223466     0.14600
H130        H  0.71550089  0.67939826  0.35874849     0.00300
H131        H  0.68585898  0.66658113  0.28122128     0.14900
H132        H  0.72448560  0.63894911  0.29818743     0.14700
C133        C  0.63967060  0.69229551  0.66429216     0.86500
C134        C  0.63832305  0.68925368  0.62994731    -0.53700
C135        C  0.65036224  0.69626242  0.61368561     0.09400
C136        C  0.66259924  0.70565064  0.63297913     0.20400
C137        C  0.65666647  0.68619621  0.67230027    -0.54500
C138        C  0.66875785  0.69305604  0.65573292     0.09500
C139        C  0.64062211  0.71060634  0.66765527    -0.54000
C140        C  0.65257164  0.71767303  0.65151366     0.10100
H141        H  0.62941653  0.68161694  0.61918737     0.14600
H142        H  0.67213577  0.71133427  0.61921388     0.00300
H143        H  0.65879091  0.67705934  0.68930638     0.14900
H144        H  0.63266742  0.71737124  0.68241552     0.14700
C145        C  0.64650703  0.84271211  0.31886992     0.86500
C146        C  0.64568000  0.84772996  0.35249907    -0.53700
C147        C  0.65821800  0.84213501  0.36971836     0.09400
C148        C  0.67021638  0.83173944  0.35171410     0.20400
C149        C  0.66319367  0.84849533  0.30866393    -0.54500
C150        C  0.67558557  0.84275579  0.32585462     0.09500
C151        C  0.64767753  0.82432046  0.31967064    -0.54000
C152        C  0.65999601  0.81841695  0.33677668     0.10100
H153        H  0.63635607  0.85517629  0.36213292     0.14600
H154        H  0.68046310  0.82729402  0.36537305     0.00300
H155        H  0.66499437  0.85666891  0.28988403     0.14900
H156        H  0.63953574  0.81666133  0.30684635     0.14700
C157        C  0.69368675  0.88764893  0.68510333     0.86500
C158        C  0.68958269  0.88696158  0.65112486    -0.53700
C159        C  0.69493343  0.87334495  0.63687509     0.09400
C160        C  0.70431562  0.86193626  0.65777083     0.20400
C161        C  0.68684708  0.87169119  0.69780522    -0.54500
C162        C  0.69263936  0.85833573  0.68348221     0.09500
C163        C  0.71204482  0.88545536  0.68677122    -0.54000
C164        C  0.71773518  0.87211189  0.67227625     0.10100
H165        H  0.68238360  0.89605427  0.63985024     0.14600
H166        H  0.70865039  0.85101575  0.64592703     0.00300
H167        H  0.67829880  0.87064343  0.71605773     0.14900
H168        H  0.71976790  0.89373199  0.69912887     0.14700
C169        C  0.84405551  0.89158693  0.31678147     0.86500
C170        C  0.84866962  0.89201789  0.35068054    -0.53700
C171        C  0.84365678  0.87881665  0.36636865     0.09400
C172        C  0.83421089  0.86663425  0.34711720     0.20400
C173        C  0.85091865  0.87539124  0.30542779    -0.54500
C174        C  0.84586079  0.86227666  0.32145913     0.09500
C175        C  0.82571919  0.88934912  0.31666111    -0.54000
C176        C  0.82050490  0.87626654  0.33226722     0.10100
H177        H  0.85602384  0.90114708  0.36140752     0.14600
H178        H  0.82993238  0.85628476  0.36060810     0.00300
H179        H  0.85934558  0.87453276  0.28681425     0.14900
H180        H  0.81759785  0.89725475  0.30444041     0.14700
C181        C  0.89265967  0.84068600  0.67739285     0.86500
C182        C  0.89336516  0.84383897  0.64298433    -0.53700
C183        C  0.88026515  0.83815282  0.62727201     0.09400
C184        C  0.86786490  0.82964014  0.64740980     0.20400
C185        C  0.87648639  0.84813541  0.68702810    -0.54500
C186        C  0.86352501  0.84221261  0.67150278     0.09500
C187        C  0.89017069  0.82241540  0.68004924    -0.54000
C188        C  0.87717829  0.81663020  0.66460233     0.10100
H189        H  0.90296124  0.85025410  0.63183864     0.14600
H190        H  0.85715518  0.82504075  0.63510789     0.00300
H191        H  0.87538311  0.85705973  0.70489898     0.14900
H192        H  0.89789302  0.81475595  0.69366641     0.14700
O193        O  0.86922353  0.52411966  0.87259837    -0.57800
C194        C  0.88688310  0.48894802  0.92298324     0.74800
O195        O  0.87707054  0.53948368  0.96488917    -0.59000
C196        C  0.86140296  0.53712601  0.87484156     0.74800
C197        C  0.83877174  0.51006232  0.95568422     0.77200
Cd198      Cd  0.86916336  0.51854151  0.92777904     1.37500
O199        O  0.87952496  0.49486670  0.90053516    -0.57800
O200        O  0.84166530  0.50706882  0.92818431    -0.56600
C201        C  0.89140342  0.54101916  0.95577961     0.77100
O202        O  0.85020355  0.51624751  0.97072843    -0.59000
O203        O  0.88550050  0.49641416  0.94782860    -0.57400
O204        O  0.85694656  0.54106781  0.90112449    -0.57400
O205        O  0.89550842  0.53203072  0.93401100    -0.56600
O206        O  0.03514349  0.65500877  0.10956741    -0.57800
C207        C  0.99794852  0.66975447  0.13953178     0.74800
O208        O  0.00228522  0.68819011  0.05117342    -0.59000
C209        C  0.04082631  0.64632816  0.08862182     0.74800
C210        C  0.98849560  0.64343832  0.04887227     0.77200
Cd211      Cd  0.01124383  0.66424160  0.08028623     1.37500
O212        O  0.00254036  0.68124407  0.12296126    -0.57800
O213        O  0.00251967  0.64586125  0.03883624    -0.56600
C214        C  0.01582556  0.69512767  0.05046819     0.77100
O215        O  0.98479465  0.65114307  0.07252927    -0.59000
O216        O  0.99998592  0.65571374  0.12906288    -0.57400
O217        O  0.03309637  0.64634372  0.06393902    -0.57400
O218        O  0.02738408  0.68751914  0.06236606    -0.56600
O219        O  0.87737277  0.00285919  0.12004481    -0.57800
C220        C  0.88805195  0.04637360  0.08421644     0.74800
O221        O  0.87878230  0.98937795  0.05854075    -0.59000
C222        C  0.86313041  0.99979441  0.12812924     0.74800
C223        C  0.83979596  0.02226673  0.04158626     0.77200
Cd224      Cd  0.87006174  0.01680992  0.07314306     1.37500
O225        O  0.88631110  0.03575692  0.10432904    -0.57800
O226        O  0.84293579  0.02887916  0.06677784    -0.56600
C227        C  0.89049101  0.99375981  0.04243701     0.77100
O228        O  0.85083933  0.01358864  0.03049817    -0.59000
O229        O  0.88082772  0.04375278  0.05945968    -0.57400
O230        O  0.85201349  0.00575429  0.11205635    -0.57400
O231        O  0.89209415  0.00877428  0.03883440    -0.56600
O232        O  0.00398471  0.87187618  0.87983917    -0.57800
C233        C  0.04386268  0.88283186  0.93248702     0.74800
O234        O  0.99370155  0.89155094  0.93181403    -0.59000
C235        C  0.99505712  0.85954133  0.87844500     0.74800
C236        C  0.01464932  0.83694869  0.96267165     0.77200
Cd237      Cd  0.01200340  0.86806033  0.93368129     1.37500
O238        O  0.03801150  0.87565408  0.90968682    -0.57800
O239        O  0.02315229  0.84066192  0.94005176    -0.56600
C240        C  0.98955512  0.89120844  0.95926686     0.77100
O241        O  0.00548425  0.84787601  0.97275349    -0.59000
O242        O  0.03530360  0.88266952  0.95604547    -0.57400
O243        O  0.99447723  0.85103208  0.90202599    -0.57400
O244        O  0.99608138  0.88040898  0.97525083    -0.56600
O245        O  0.52736669  0.66179889  0.86411684    -0.57800
C246        C  0.48946586  0.64880681  0.91541672     0.74800
O247        O  0.53412249  0.65040285  0.96197377    -0.59000
C248        C  0.53913020  0.67146783  0.86565448     0.74800
C249        C  0.51817240  0.69536621  0.94788903     0.77200
Cd250      Cd  0.52077678  0.66405193  0.91901254     1.37500
O251        O  0.49503631  0.65675841  0.89344119    -0.57800
O252        O  0.50811371  0.69083487  0.92801910    -0.56600
C253        C  0.54137600  0.64004177  0.94599401     0.77100
O254        O  0.52871416  0.68515405  0.95540886    -0.59000
O255        O  0.49809066  0.64845148  0.93903395    -0.57400
O256        O  0.54173782  0.67789234  0.89112499    -0.57400
O257        O  0.53874560  0.64058166  0.91785179    -0.56600
O258        O  0.65392262  0.49844320  0.09601807    -0.57800
C259        C  0.67535949  0.54235599  0.11371187     0.74800
O260        O  0.68555182  0.51731408  0.02418667    -0.59000
C261        C  0.64818238  0.49094871  0.07342884     0.74800
C262        C  0.64272394  0.54146319  0.03702340     0.77200
Cd263      Cd  0.66604063  0.52057504  0.06589555     1.37500
O264        O  0.66785457  0.52944810  0.11942231    -0.57800
O265        O  0.65575836  0.53766923  0.02408109    -0.56600
C266        C  0.69684930  0.51156498  0.04011766     0.77100
O267        O  0.64042861  0.53537044  0.06278259    -0.59000
O268        O  0.67876071  0.54482762  0.08629212    -0.57400
O269        O  0.65131387  0.49679209  0.04775866    -0.57400
O270        O  0.69368120  0.50927452  0.06773474    -0.56600
O271        O  0.53257195  0.86959985  0.12002221    -0.57800
C272        C  0.49669775  0.88570220  0.06472692     0.74800
O273        O  0.54292623  0.88011896  0.02345096    -0.59000
C274        C  0.54356182  0.85904949  0.11903759     0.74800
C275        C  0.51986326  0.83673401  0.03865830     0.77200
Cd276      Cd  0.52666139  0.86807617  0.06485115     1.37500
O277        O  0.50270769  0.88016985  0.08889463    -0.57800
O278        O  0.51126284  0.84267483  0.05946020    -0.56600
C279        C  0.54992826  0.89040824  0.04013951     0.77100
O280        O  0.53130310  0.84546843  0.02937864    -0.59000
O281        O  0.50437061  0.88277862  0.04067743    -0.57400
O282        O  0.54588828  0.85238055  0.09370878    -0.57400
O283        O  0.54594489  0.89044939  0.06765505    -0.56600
O284        O  0.65588405  0.00362599  0.87483040    -0.57800
C285        C  0.64967595  0.04646419  0.91793404     0.74800
O286        O  0.65797818  0.98882687  0.93336468    -0.59000
C287        C  0.66916409  0.99974918  0.86295215     0.74800
C288        C  0.69909649  0.02121526  0.94800807     0.77200
Cd289      Cd  0.66736545  0.01627832  0.92069925     1.37500
O290        O  0.65490660  0.03985082  0.89409120    -0.57800
O291        O  0.69501214  0.02807683  0.92367413    -0.56600
C292        C  0.64800851  0.99301045  0.95341330     0.77100
O293        O  0.68856508  0.01224241  0.95978144    -0.59000
O294        O  0.65317631  0.03950143  0.94240434    -0.57400
O295        O  0.68170503  0.00452851  0.87666788    -0.57400
O296        O  0.64747748  0.00789469  0.95942181    -0.56600
O297        O  0.53322856  0.38524452  0.08656670    -0.57800
C298        C  0.49070989  0.36350576  0.11142583     0.74800
O299        O  0.49146045  0.38120520  0.02033441    -0.59000
C300        C  0.54094871  0.38862717  0.06280129     0.74800
C301        C  0.51775392  0.34056421  0.03670112     0.77200
Cd302      Cd  0.51033126  0.37209579  0.06031984     1.37500
O303        O  0.50373871  0.37119803  0.11522699    -0.57800
O304        O  0.52188466  0.34496301  0.06303325    -0.56600
C305        C  0.48856956  0.39476707  0.03227041     0.77100
O306        O  0.51074545  0.35103480  0.02060566    -0.59000
O307        O  0.48718282  0.35973489  0.08451088    -0.57400
O308        O  0.53468072  0.38404258  0.03809824    -0.57400
O309        O  0.49624605  0.39803080  0.05625710    -0.56600
O310        O  0.38067186  0.53799756  0.89625461    -0.57800
C311        C  0.35849284  0.50187918  0.86352844     0.74800
O312        O  0.37513556  0.48957644  0.93215815    -0.59000
C313        C  0.38116428  0.54741222  0.91878457     0.74800
C314        C  0.33345572  0.52012953  0.95111153     0.77200
Cd315      Cd  0.36443007  0.51678147  0.92160391     1.37500
O316        O  0.37251027  0.50603872  0.87167907    -0.57800
O317        O  0.33652693  0.52703755  0.92632578    -0.56600
C318        C  0.38549183  0.49396036  0.95147826     0.77100
O319        O  0.34479491  0.51196751  0.96257826    -0.59000
O320        O  0.34717925  0.50570125  0.88120880    -0.57400
O321        O  0.37314241  0.54312344  0.94156541    -0.57400
O322        O  0.38557996  0.50876211  0.95813533    -0.56600
O323        O  0.50486385  0.16675673  0.89154960    -0.57800
C324        C  0.54385470  0.14968843  0.94332669     0.74800
O325        O  0.51118696  0.18595418  0.98572853    -0.59000
C326        C  0.49188963  0.17431278  0.89667693     0.74800
C327        C  0.49248033  0.13999028  0.96750474     0.77200
Cd328      Cd  0.51288761  0.16529311  0.94554116     1.37500
O329        O  0.53696169  0.15461115  0.91947129    -0.57800
O330        O  0.49862689  0.13989765  0.94143994    -0.56600
C331        C  0.51915035  0.19649666  0.97149167     0.77100
O332        O  0.49631792  0.15168172  0.98461861    -0.59000
O333        O  0.53670782  0.15259021  0.96796029    -0.57400
O334        O  0.48920675  0.17814350  0.92387672    -0.57400
O335        O  0.52461443  0.19232191  0.94596162    -0.56600
O336        O  0.37064844  0.02388980  0.13968496    -0.57800
C337        C  0.38896434  0.98730399  0.08490808     0.74800
O338        O  0.34929061  0.01657888  0.04634916    -0.59000
C339        C  0.36264031  0.03672722  0.13597171     0.74800
C340        C  0.39425886  0.03908092  0.06082688     0.77200
Cd341      Cd  0.37089404  0.01688097  0.08493118     1.37500
O342        O  0.38334854  0.99319148  0.10914036    -0.57800
O343        O  0.39559326  0.03239719  0.08631020    -0.56600
C344        C  0.33943539  0.00843738  0.06188674     0.77100
O345        O  0.38198273  0.03523934  0.04522467    -0.59000
O346        O  0.38558984  0.99473154  0.06078369    -0.57400
O347        O  0.35802708  0.03969057  0.10929044    -0.57400
O348        O  0.34437571  0.00377438  0.08749554    -0.56600
O349        O  0.00353477  0.15153122  0.05914981    -0.57800
C350        C  0.04583636  0.17437878  0.13460947     0.74800
O351        O  0.04213588  0.13952426  0.08595181    -0.59000
C352        C  0.99561974  0.14889147  0.08298464     0.74800
C353        C  0.02203342  0.19556124  0.05385595     0.77200
Cd354      Cd  0.02664134  0.16473678  0.08302255     1.37500
O355        O  0.03316743  0.16611683  0.13827860    -0.57800
O356        O  0.01304287  0.19109741  0.07531071    -0.56600
C357        C  0.04687187  0.13952930  0.05884175     0.77100
O358        O  0.03256624  0.18556648  0.04523134    -0.59000
O359        O  0.04897087  0.17844503  0.10779765    -0.57400
O360        O  0.00174499  0.15416963  0.10739686    -0.57400
O361        O  0.04208070  0.15112348  0.04264088    -0.56600
O362        O  0.15537338  0.99239399  0.91752691    -0.57800
C363        C  0.17318626  0.03777297  0.89327460     0.74800
O364        O  0.15720735  0.03202815  0.98700714    -0.59000
C365        C  0.15140959  0.98531458  0.94169896     0.74800
C366        C  0.20009104  0.01077933  0.96312865     0.77200
Cd367      Cd  0.16741812  0.01642058  0.94318215     1.37500
O368        O  0.16591771  0.02451536  0.88907768    -0.57800
O369        O  0.19521588  0.00692643  0.93693467    -0.56600
C370        C  0.14444992  0.03658984  0.97381476     0.77100
O371        O  0.18970249  0.01688125  0.98062744    -0.59000
O372        O  0.17782226  0.04072715  0.91997904    -0.57400
O373        O  0.15543107  0.99227586  0.96605731    -0.57400
O374        O  0.14234088  0.03153131  0.94710340    -0.56600
O375        O  0.15020822  0.53472162  0.10516265    -0.57800
C376        C  0.17248086  0.49163440  0.12704487     0.74800
O377        O  0.15074962  0.49562097  0.03546466    -0.59000
C378        C  0.14658642  0.54286661  0.08199750     0.74800
C379        C  0.19345583  0.51769381  0.04850619     0.77200
Cd380      Cd  0.16270027  0.51183086  0.07704798     1.37500
O381        O  0.16540910  0.50492611  0.13168380    -0.57800
O382        O  0.19082939  0.52176960  0.07566621    -0.56600
C383        C  0.13880338  0.49070025  0.05046511     0.77100
O384        O  0.18172555  0.51145350  0.03437044    -0.59000
O385        O  0.17524259  0.48808086  0.09973719    -0.57400
O386        O  0.15081846  0.53693487  0.05689794    -0.57400
O387        O  0.13770548  0.49592854  0.07723759    -0.56600
O388        O  0.99794576  0.38022740  0.90583514    -0.57800
C389        C  0.03951001  0.36047155  0.87664167     0.74800
O390        O  0.03899312  0.37442255  0.97174200    -0.59000
C391        C  0.99048348  0.38349026  0.92995892     0.74800
C392        C  0.01452533  0.33418737  0.95434570     0.77200
Cd393      Cd  0.02056135  0.36596829  0.93042665     1.37500
O394        O  0.02445556  0.36261449  0.87489427    -0.57800
O395        O  0.00915828  0.33841819  0.92878472    -0.56600
C396        C  0.04124411  0.38844112  0.96145645     0.77100
O397        O  0.02232014  0.34473453  0.96898092    -0.59000
O398        O  0.04548241  0.36049127  0.90295708    -0.57400
O399        O  0.99669909  0.37828027  0.95416057    -0.57400
O400        O  0.03372656  0.39195996  0.93745523    -0.56600
C401        C  0.12691467  0.47927344  0.03772231    -0.03200
C402        C  0.12775820  0.47443807  0.00732610    -0.05800
C403        C  0.11672244  0.46332952  0.99560305    -0.20900
C404        C  0.10478955  0.45665356  0.01408556     0.24900
C405        C  0.10381310  0.46163997  0.04443618    -0.18400
C406        C  0.11478179  0.47282974  0.05610184    -0.08400
C407        C  0.09323751  0.44503216  0.00060475    -0.18700
C408        C  0.08529540  0.43384314  0.01670258    -0.23500
C409        C  0.07377156  0.42237972  0.00259579     0.26900
C410        C  0.07117492  0.40732185  0.01603244    -0.20300
C411        C  0.06054014  0.39622528  0.00286866    -0.09900
C412        C  0.05217683  0.40011617  0.97621262    -0.10400
C413        C  0.05448882  0.41532635  0.96325065    -0.03400
C414        C  0.06509756  0.42635906  0.97632378    -0.18500
H415        H  0.13695073  0.47922971  0.99260641     0.10600
H416        H  0.11760887  0.45981213  0.97206162     0.10700
H417        H  0.09446875  0.45715459  0.05911176     0.10300
H418        H  0.11379355  0.47639494  0.07959357     0.11400
H419        H  0.09186589  0.44525233  0.97619725     0.11500
H420        H  0.08785993  0.43245916  0.04062744     0.13400
H421        H  0.07757048  0.40405452  0.03649002     0.10000
H422        H  0.05893275  0.38460406  0.01342590     0.12100
H423        H  0.04809856  0.41873020  0.94287768     0.08700
H424        H  0.06629501  0.43805963  0.96594912     0.11400
C425        C  0.02080879  0.21177674  0.04029243    -0.03200
C426        C  0.03432782  0.21862288  0.02643314    -0.05800
C427        C  0.03387265  0.23443055  0.01587030    -0.20900
C428        C  0.01978502  0.24362649  0.01812551     0.24900
C429        C  0.00603859  0.23665737  0.03117068    -0.18400
C430        C  0.00661219  0.22089982  0.04243812    -0.08400
C431        C  0.02034771  0.26072806  0.00857924    -0.18700
C432        C  0.00763337  0.26886634  0.99752125    -0.23500
C433        C  0.00903274  0.28585051  0.98739084     0.26900
C434        C  0.99987049  0.29118478  0.96266848    -0.20300
C435        C  0.00153238  0.30694048  0.95197708    -0.09900
C436        C  0.01215028  0.31775135  0.96626141    -0.10400
C437        C  0.02088549  0.31257604  0.99166282    -0.03400
C438        C  0.01938297  0.29679460  0.00207737    -0.18500
H439        H  0.04546752  0.21193484  0.02469965     0.10600
H440        H  0.04463890  0.23955802  0.00609628     0.10700
H441        H  0.99507286  0.24353752  0.03372322     0.10300
H442        H  0.99603247  0.21590578  0.05309895     0.11400
H443        H  0.03203721  0.26657906  0.00913306     0.11500
H444        H  0.99628068  0.26266346  0.99390090     0.13400
H445        H  0.99170668  0.28302558  0.95116248     0.10000
H446        H  0.99457663  0.31063591  0.93245429     0.12100
H447        H  0.02909410  0.32065967  0.00323866     0.08700
H448        H  0.02627291  0.29320893  0.02173964     0.11400
C449        C  0.13268266  0.04743956  0.98834942    -0.03200
C450        C  0.13548649  0.05379586  0.01736318    -0.05800
C451        C  0.12455809  0.06462098  0.03025913    -0.20900
C452        C  0.11072189  0.06938701  0.01431629     0.24900
C453        C  0.10771318  0.06261403  0.98564887    -0.18400
C454        C  0.11861245  0.05184543  0.97278468    -0.08400
C455        C  0.09956334  0.08123809  0.02825273    -0.18700
C456        C  0.08999018  0.09091211  0.01167361    -0.23500
C457        C  0.07888305  0.10309641  0.02466043     0.26900
C458        C  0.07351097  0.11562751  0.00598249    -0.20300
C459        C  0.06301924  0.12737476  0.01698784    -0.09900
C460        C  0.05756786  0.12679129  0.04693552    -0.10400
C461        C  0.06265160  0.11407519  0.06553891    -0.03400
C462        C  0.07317281  0.10230972  0.05452565    -0.18500
H463        H  0.14620392  0.05055490  0.02993184     0.10600
H464        H  0.12705822  0.06950552  0.05252466     0.10700
H465        H  0.09688680  0.06545052  0.97312088     0.10300
H466        H  0.11602538  0.04700444  0.95052457     0.11400
H467        H  0.09996847  0.08258051  0.05264241     0.11500
H468        H  0.09084967  0.09053441  0.98721354     0.13400
H469        H  0.07757349  0.11642667  0.98280207     0.10000
H470        H  0.05926125  0.13698051  0.00207893     0.12100
H471        H  0.05851587  0.11322781  0.08865734     0.08700
H472        H  0.07658686  0.09257149  0.06935771     0.11400
C473        C  0.32286783  0.00500277  0.05118545    -0.03200
C474        C  0.31167990  0.99747563  0.07023649    -0.05800
C475        C  0.29561492  0.99567695  0.06119501    -0.20900
C476        C  0.29039412  0.00123971  0.03286583     0.24900
C477        C  0.30174944  0.00834957  0.01347551    -0.18400
C478        C  0.31778367  0.01015748  0.02253581    -0.08400
C479        C  0.27287977  0.00077065  0.02549068    -0.18700
C480        C  0.26697632  0.00235191  0.99722394    -0.23500
C481        C  0.24955665  0.00390692  0.98981410     0.26900
C482        C  0.24461577  0.00132411  0.95980893    -0.20300
C483        C  0.22855804  0.00345290  0.95126983    -0.09900
C484        C  0.21703975  0.00836066  0.97252194    -0.10400
C485        C  0.22194878  0.01115277  0.00251987    -0.03400
C486        C  0.23803529  0.00894505  0.01112632    -0.18500
H487        H  0.31522530  0.99340029  0.09250866     0.10600
H488        H  0.28715397  0.99024552  0.07667516     0.10700
H489        H  0.29827037  0.01322314  0.99181106     0.10300
H490        H  0.32610433  0.01605893  0.00741464     0.11400
H491        H  0.26463702  0.99918580  0.04419241     0.11500
H492        H  0.27521618  0.00242450  0.97828870     0.13400
H493        H  0.25324539  0.99769427  0.94281622     0.10000
H494        H  0.22519232  0.00138667  0.92790077     0.12100
H495        H  0.21336793  0.01512403  0.01931833     0.08700
H496        H  0.24139500  0.01160902  0.03424205     0.11400
C497        C  0.40640689  0.05090921  0.05068124    -0.03200
C498        C  0.41894169  0.05536469  0.07040446    -0.05800
C499        C  0.43020760  0.06692257  0.06200984    -0.20900
C500        C  0.42937491  0.07428180  0.03360322     0.24900
C501        C  0.41684476  0.06981289  0.01364015    -0.18400
C502        C  0.40547926  0.05820362  0.02213830    -0.08400
C503        C  0.44157794  0.08681398  0.02652104    -0.18700
C504        C  0.44482458  0.09207481  0.99848277    -0.23500
C505        C  0.45753401  0.10416635  0.99193043     0.26900
C506        C  0.46403624  0.10457659  0.96276617    -0.20300
C507        C  0.47571406  0.11592573  0.95524066    -0.09900
C508        C  0.48103389  0.12730784  0.97663764    -0.10400
C509        C  0.47462274  0.12692639  0.00591940    -0.03400
C510        C  0.46295829  0.11548667  0.01352595    -0.18500
H511        H  0.41997280  0.05003843  0.09262785     0.10600
H512        H  0.43963553  0.07014798  0.07790012     0.10700
H513        H  0.41549925  0.07543275  0.99178983     0.10300
H514        H  0.39588387  0.05507712  0.00655784     0.11400
H515        H  0.44876558  0.09125646  0.04530537     0.11500
H516        H  0.43865316  0.08674089  0.97926343     0.13400
H517        H  0.46003775  0.09608619  0.94566985     0.10000
H518        H  0.48034659  0.11597378  0.93239879     0.12100
H519        H  0.47840585  0.13564247  0.02276981     0.08700
H520        H  0.45794680  0.11589363  0.03602398     0.11400
C521        C  0.31742071  0.52126624  0.96560399    -0.03200
C522        C  0.31502522  0.51534788  0.99493287    -0.05800
C523        C  0.29975029  0.51575125  0.00811158    -0.20900
C524        C  0.28644351  0.52189358  0.99223091     0.24900
C525        C  0.28892346  0.52817862  0.96307578    -0.18400
C526        C  0.30424256  0.52785725  0.94996281    -0.08400
C527        C  0.27036721  0.52171040  0.00718021    -0.18700
C528        C  0.25622299  0.52302919  0.99228547    -0.23500
C529        C  0.24023343  0.52208882  0.00736670     0.26900
C530        C  0.22677435  0.51741178  0.99015843    -0.20300
C531        C  0.21157491  0.51614747  0.00342346    -0.09900
C532        C  0.20942599  0.51975188  0.03419816    -0.10400
C533        C  0.22278985  0.52481814  0.05132351    -0.03400
C534        C  0.23802950  0.52598937  0.03809097    -0.18500
H535        H  0.32495543  0.51030830  0.00767094     0.10600
H536        H  0.29828477  0.51101050  0.03070707     0.10700
H537        H  0.27917633  0.53349495  0.95033414     0.10300
H538        H  0.30573006  0.53260530  0.92738558     0.11400
H539        H  0.27024742  0.51948086  0.03132599     0.11500
H540        H  0.25618153  0.52384108  0.96783094     0.13400
H541        H  0.22806641  0.51448299  0.96640940     0.10000
H542        H  0.20151304  0.51225272  0.98959009     0.12100
H543        H  0.22150035  0.52774645  0.07506378     0.08700
H544        H  0.24796066  0.53012898  0.05194227     0.11400
C545        C  0.52060077  0.32395317  0.02578726    -0.03200
C546        C  0.51598006  0.31927497  0.99646345    -0.05800
C547        C  0.51793023  0.30333154  0.98687351    -0.20900
C548        C  0.52430326  0.29170619  0.00649623     0.24900
C549        C  0.52926904  0.29647109  0.03561561    -0.18400
C550        C  0.52740947  0.31241963  0.04513918    -0.08400
C551        C  0.52556986  0.27476853  0.99589070    -0.18700
C552        C  0.52462118  0.26208200  0.01468442    -0.23500
C553        C  0.52419130  0.24513971  0.00388177     0.26900
C554        C  0.51593192  0.23364476  0.02105060    -0.20300
C555        C  0.51455311  0.21774049  0.01089908    -0.09900
C556        C  0.52159239  0.21297163  0.98349144    -0.10400
C557        C  0.53039624  0.22432824  0.96686863    -0.03400
C558        C  0.53171419  0.24024552  0.97695786    -0.18500
H559        H  0.51069535  0.32789011  0.98104467     0.10600
H560        H  0.51411663  0.29998594  0.96425956     0.10700
H561        H  0.53467480  0.28795576  0.05104623     0.10300
H562        H  0.53115252  0.31567888  0.06782743     0.11400
H563        H  0.52589392  0.27272005  0.97164783     0.11500
H564        H  0.52264023  0.26414798  0.03862670     0.13400
H565        H  0.51016064  0.23708346  0.04201250     0.10000
H566        H  0.50772757  0.20925745  0.02423275     0.12100
H567        H  0.53609003  0.22097058  0.94579569     0.08700
H568        H  0.53862804  0.24865296  0.96365282     0.11400
C569        C  0.39712524  0.48252568  0.96485633    -0.03200
C570        C  0.40835786  0.48777657  0.98653745    -0.05800
C571        C  0.41991141  0.47718650  0.99798374    -0.20900
C572        C  0.42063712  0.46117861  0.98780354     0.24900
C573        C  0.40916831  0.45582172  0.96651379    -0.18400
C574        C  0.39756486  0.46641222  0.95513806    -0.08400
C575        C  0.43334489  0.45050263  0.00041993    -0.18700
C576        C  0.43889230  0.43722088  0.98624176    -0.23500
C577        C  0.45202969  0.42678641  0.99824882     0.26900
C578        C  0.45438936  0.41156929  0.98501574    -0.20300
C579        C  0.46649547  0.40129211  0.99552826    -0.09900
C580        C  0.47653770  0.40601668  0.01956785    -0.10400
C581        C  0.47445365  0.42134658  0.03242079    -0.03400
C582        C  0.46242061  0.43165685  0.02182993    -0.18500
H583        H  0.40832345  0.50012291  0.99446308     0.10600
H584        H  0.42849790  0.48159982  0.01454283     0.10700
H585        H  0.40894744  0.44346578  0.95878644     0.10300
H586        H  0.38901422  0.46200989  0.93851850     0.11400
H587        H  0.43851808  0.45416809  0.02187071     0.11500
H588        H  0.43369507  0.43374175  0.96465798     0.13400
H589        H  0.44670716  0.40752583  0.96665824     0.10000
H590        H  0.46780315  0.38953563  0.98518185     0.12100
H591        H  0.48209757  0.42537083  0.05084175     0.08700
H592        H  0.46152896  0.44341420  0.03215379     0.11400
C593        C  0.63955660  0.06115657  0.91760208    -0.03200
C594        C  0.63375633  0.06761205  0.89037542    -0.05800
C595        C  0.62285060  0.08047216  0.89065741    -0.20900
C596        C  0.61756750  0.08723916  0.91807475     0.24900
C597        C  0.62379140  0.08101336  0.94529485    -0.18400
C598        C  0.63465763  0.06818565  0.94498216    -0.08400
C599        C  0.60484088  0.09992662  0.91717845    -0.18700
C600        C  0.60032952  0.10888930  0.94123369    -0.23500
C601        C  0.58649678  0.12029255  0.94091514     0.26900
C602        C  0.57923684  0.12432465  0.96852897    -0.20300
C603        C  0.56568862  0.13426803  0.96937224    -0.09900
C604        C  0.55911491  0.14050580  0.94256821    -0.10400
C605        C  0.56674152  0.13706171  0.91501812    -0.03400
C606        C  0.58032011  0.12709890  0.91416559    -0.18500
H607        H  0.63726884  0.06242622  0.86890443     0.10600
H608        H  0.61826565  0.08494353  0.86932803     0.10700
H609        H  0.61997707  0.08547962  0.96705111     0.10300
H610        H  0.63888406  0.06345885  0.96636559     0.11400
H611        H  0.59858521  0.10143845  0.89582518     0.11500
H612        H  0.60640878  0.10740135  0.96272878     0.13400
H613        H  0.58381334  0.11941343  0.98951896     0.10000
H614        H  0.56013124  0.13674905  0.99099169     0.12100
H615        H  0.56204812  0.14184422  0.89402839     0.08700
H616        H  0.58587225  0.12480999  0.89252482     0.11400
C617        C  0.39941316  0.97289432  0.08478278    -0.03200
C618        C  0.40302979  0.96482256  0.11178316    -0.05800
C619        C  0.41413681  0.95218343  0.11201549    -0.20900
C620        C  0.42181124  0.94727264  0.08530276     0.24900
C621        C  0.41791674  0.95517042  0.05812809    -0.18400
C622        C  0.40678883  0.96777819  0.05790029    -0.08400
C623        C  0.43464895  0.93482221  0.08723247    -0.18700
C624        C  0.44009674  0.92637666  0.06327890    -0.23500
C625        C  0.45410070  0.91522005  0.06452629     0.26900
C626        C  0.46194388  0.91135026  0.03740784    -0.20300
C627        C  0.47561660  0.90156856  0.03741169    -0.09900
C628        C  0.48171269  0.89532031  0.06458685    -0.10400
C629        C  0.47361860  0.89874882  0.09166180    -0.03400
C630        C  0.45992626  0.90854299  0.09167362    -0.18500
H631        H  0.39757248  0.96852570  0.13287381     0.10600
H632        H  0.41696735  0.94640164  0.13328496     0.10700
H633        H  0.42384484  0.95218087  0.03715629     0.10300
H634        H  0.40436276  0.97387610  0.03677897     0.11400
H635        H  0.44003172  0.93300495  0.10930921     0.11500
H636        H  0.43458973  0.92815297  0.04128608     0.13400
H637        H  0.45767369  0.91619875  0.01614203     0.10000
H638        H  0.48154652  0.89908756  0.01615049     0.12100
H639        H  0.47795266  0.89397006  0.11292566     0.08700
H640        H  0.45399540  0.91072312  0.11298135     0.11400
C641        C  0.56216438  0.90174158  0.02845728    -0.03200
C642        C  0.56645273  0.90164958  0.99781490    -0.05800
C643        C  0.57806230  0.91236756  0.98701059    -0.20900
C644        C  0.58563201  0.92345924  0.00649961     0.24900
C645        C  0.58148454  0.92336043  0.03734100    -0.18400
C646        C  0.56984924  0.91266787  0.04810473    -0.08400
C647        C  0.59794129  0.93457560  0.99370291    -0.18700
C648        C  0.60365463  0.94779873  0.00798311    -0.23500
C649        C  0.61550994  0.95900911  0.99417709     0.26900
C650        C  0.61590215  0.97510657  0.00395751    -0.20300
C651        C  0.62658823  0.98611993  0.99105489    -0.09900
C652        C  0.63730020  0.98120952  0.96833684    -0.10400
C653        C  0.63724648  0.96500059  0.95913555    -0.03400
C654        C  0.62650756  0.95400681  0.97192734    -0.18500
H655        H  0.56083167  0.89329785  0.98216234     0.10600
H656        H  0.58109109  0.91203244  0.96322812     0.10700
H657        H  0.58727107  0.93129065  0.05345023     0.10300
H658        H  0.56693400  0.91290486  0.07193881     0.11400
H659        H  0.60188720  0.93207891  0.97081223     0.11500
H660        H  0.59885005  0.95122749  0.02980698     0.13400
H661        H  0.60769414  0.97925419  0.02127218     0.10000
H662        H  0.62635409  0.99851865  0.99866979     0.12100
H663        H  0.64541459  0.96082771  0.94178939     0.08700
H664        H  0.62698602  0.94160374  0.96448823     0.11400
C665        C  0.63789316  0.47649288  0.07659069    -0.03200
C666        C  0.63244376  0.47149289  0.10506374    -0.05800
C667        C  0.62138080  0.45883893  0.10746025    -0.20900
C668        C  0.61563939  0.45081813  0.08153507     0.24900
C669        C  0.62145817  0.45560524  0.05309365    -0.18400
C670        C  0.63246645  0.46824563  0.05072489    -0.08400
C671        C  0.60264597  0.43857174  0.08487239    -0.18700
C672        C  0.59871175  0.42774430  0.06324212    -0.23500
C673        C  0.58439068  0.41697258  0.06452603     0.26900
C674        C  0.57855155  0.41037833  0.03733341    -0.20300
C675        C  0.56462880  0.40094423  0.03686637    -0.09900
C676        C  0.55626307  0.39774639  0.06368459    -0.10400
C677        C  0.56237189  0.40383749  0.09110061    -0.03400
C678        C  0.57630027  0.41333286  0.09157582    -0.18500
H679        H  0.63634146  0.47767376  0.12540779     0.10600
H680        H  0.61703913  0.45551524  0.12962771     0.10700
H681        H  0.61709864  0.45018479  0.03239374     0.10300
H682        H  0.63637052  0.47187856  0.02844628     0.11400
H683        H  0.59575824  0.43905000  0.10560115     0.11500
H684        H  0.60576411  0.42718980  0.04271569     0.13400
H685        H  0.58457681  0.41285291  0.01618890     0.10000
H686        H  0.56028157  0.39635276  0.01539184     0.12100
H687        H  0.55625480  0.40145206  0.11217685     0.08700
H688        H  0.58061299  0.41770809  0.11316772     0.11400
C689        C  0.47400537  0.63995303  0.91351797    -0.03200
C690        C  0.46518795  0.63928777  0.88638412    -0.05800
C691        C  0.45143302  0.62960869  0.88401801    -0.20900
C692        C  0.44613199  0.62045363  0.90870137     0.24900
C693        C  0.45474137  0.62151957  0.93613603    -0.18400
C694        C  0.46846142  0.63118914  0.93848088    -0.08400
C695        C  0.43257481  0.60891243  0.90411536    -0.18700
C696        C  0.42443186  0.60192703  0.92689005    -0.23500
C697        C  0.41234346  0.58883620  0.92268413     0.26900
C698        C  0.40219258  0.58505825  0.94693118    -0.20300
C699        C  0.39166155  0.57196398  0.94519407    -0.09900
C700        C  0.39107262  0.56224220  0.91916414    -0.10400
C701        C  0.40098160  0.56614318  0.89461308    -0.03400
C702        C  0.41154450  0.57925973  0.89634244    -0.18500
H703        H  0.46917105  0.64588207  0.86672459     0.10600
H704        H  0.44512098  0.62897773  0.86257421     0.10700
H705        H  0.45143988  0.61442514  0.95555620     0.10300
H706        H  0.47503107  0.63139776  0.95967032     0.11400
H707        H  0.42936909  0.60602521  0.88093730     0.11500
H708        H  0.42665277  0.60586040  0.94992883     0.13400
H709        H  0.40262878  0.59209009  0.96759144     0.10000
H710        H  0.38426686  0.56921041  0.96459506     0.12100
H711        H  0.40093904  0.55875376  0.87439416     0.08700
H712        H  0.41943807  0.58138689  0.87742850     0.11400
C713        C  0.51813879  0.71187189  0.96074411    -0.03200
C714        C  0.53164429  0.71755575  0.97672395    -0.05800
C715        C  0.53247021  0.73356956  0.98637875    -0.20900
C716        C  0.51973518  0.74424964  0.98078985     0.24900
C717        C  0.50599765  0.73847739  0.96544898    -0.18400
C718        C  0.50525056  0.72245110  0.95545270    -0.08400
C719        C  0.52173452  0.76141672  0.98988067    -0.18700
C720        C  0.50945723  0.77169567  0.99462655    -0.23500
C721        C  0.51208415  0.78858712  0.00482456     0.26900
C722        C  0.50083506  0.79584934  0.02410583    -0.20300
C723        C  0.50328852  0.81151563  0.03498273    -0.09900
C724        C  0.51690123  0.82037885  0.02626425    -0.10400
C725        C  0.52790001  0.81329379  0.00617391    -0.03400
C726        C  0.52554283  0.79756567  0.99559233    -0.18500
H727        H  0.54182721  0.70974835  0.98096887     0.10600
H728        H  0.54321563  0.73768427  0.99800961     0.10700
H729        H  0.49606213  0.74639040  0.96016003     0.10300
H730        H  0.49472352  0.71842190  0.94305757     0.11400
H731        H  0.53392850  0.76554085  0.99427957     0.11500
H732        H  0.49715100  0.76738660  0.99320651     0.13400
H733        H  0.49030154  0.78924179  0.03132532     0.10000
H734        H  0.49456598  0.81665980  0.05034564     0.12100
H735        H  0.53845474  0.81984203  0.99889950     0.08700
H736        H  0.53421154  0.79250242  0.98004746     0.11400
C737        C  0.55253875  0.62811961  0.95926492    -0.03200
C738        C  0.55664827  0.62881435  0.99004271    -0.05800
C739        C  0.56769636  0.61791129  0.00223846    -0.20900
C740        C  0.57490498  0.60608397  0.98399659     0.24900
C741        C  0.57051425  0.60520224  0.95324281    -0.18400
C742        C  0.55952608  0.61616149  0.94103222    -0.08400
C743        C  0.58652666  0.59471933  0.99822128    -0.18700
C744        C  0.59688345  0.58538702  0.98261644    -0.23500
C745        C  0.60845344  0.57414874  0.99724948     0.26900
C746        C  0.62230739  0.56952417  0.98136751    -0.20300
C747        C  0.63344168  0.55890186  0.99420044    -0.09900
C748        C  0.63086205  0.55252098  0.02311878    -0.10400
C749        C  0.61688035  0.55693758  0.03886851    -0.03400
C750        C  0.60577292  0.56759223  0.02608518    -0.18500
H751        H  0.55145435  0.63789619  0.00465899     0.10600
H752        H  0.57071468  0.61880367  0.02602825     0.10700
H753        H  0.57530775  0.59600858  0.93848618     0.10300
H754        H  0.55648463  0.61525201  0.91725971     0.11400
H755        H  0.58694225  0.59457964  0.02273220     0.11500
H756        H  0.59757325  0.58645934  0.95824883     0.13400
H757        H  0.62459786  0.57425945  0.95901812     0.10000
H758        H  0.64407825  0.55569546  0.98148053     0.12100
H759        H  0.61449772  0.55213577  0.06112494     0.08700
H760        H  0.59500749  0.57039643  0.03868729     0.11400
C761        C  0.05947465  0.89151612  0.93136773    -0.03200
C762        C  0.06790391  0.89296339  0.90405292    -0.05800
C763        C  0.08156495  0.90279101  0.90221082    -0.20900
C764        C  0.08723140  0.91132780  0.92761432     0.24900
C765        C  0.07909649  0.90936879  0.95527356    -0.18400
C766        C  0.06544138  0.89954055  0.95708617    -0.08400
C767        C  0.10070482  0.92307350  0.92359026    -0.18700
C768        C  0.10905154  0.92982929  0.94664944    -0.23500
C769        C  0.12117830  0.94304953  0.94355267     0.26900
C770        C  0.12855017  0.94894962  0.97001688    -0.20300
C771        C  0.13880334  0.96228375  0.96920053    -0.09900
C772        C  0.14205311  0.97008868  0.94180277    -0.10400
C773        C  0.13529504  0.96384880  0.91505088    -0.03400
C774        C  0.12493197  0.95051975  0.91585699    -0.18500
H775        H  0.06362748  0.88693778  0.88381247     0.10600
H776        H  0.08749874  0.90404801  0.88059461     0.10700
H777        H  0.08268650  0.91588302  0.97536740     0.10300
H778        H  0.05920487  0.89869280  0.97846504     0.11400
H779        H  0.10350250  0.92635788  0.90054915     0.11500
H780        H  0.10671722  0.92578710  0.96946768     0.13400
H781        H  0.12601359  0.94349322  0.99167936     0.10000
H782        H  0.14386704  0.96673576  0.99022222     0.12100
H783        H  0.13758037  0.96960758  0.89357714     0.08700
H784        H  0.11967227  0.94652367  0.89478289     0.11400
C785        C  0.89844609  0.06069708  0.08897071    -0.03200
C786        C  0.90804249  0.06208647  0.11506404    -0.05800
C787        C  0.91902134  0.07476645  0.11823995    -0.20900
C788        C  0.92070989  0.08638495  0.09546987     0.24900
C789        C  0.91055362  0.08536884  0.06990687    -0.18400
C790        C  0.89963971  0.07261715  0.06666672    -0.08400
C791        C  0.93339268  0.09901962  0.09924890    -0.18700
C792        C  0.93878444  0.10843382  0.07663670    -0.23500
C793        C  0.95270800  0.11970091  0.07947739     0.26900
C794        C  0.96046998  0.12456776  0.05291962    -0.20300
C795        C  0.97411930  0.13436176  0.05415381    -0.09900
C796        C  0.98032816  0.13968609  0.08203033    -0.10400
C797        C  0.97224672  0.13539411  0.10865547    -0.03400
C798        C  0.95854593  0.12552850  0.10743159    -0.18500
H799        H  0.90739258  0.05311818  0.13270847     0.10600
H800        H  0.92651627  0.07526671  0.13831075     0.10700
H801        H  0.91093762  0.09426153  0.05219464     0.10300
H802        H  0.89228995  0.07196243  0.04643028     0.11400
H803        H  0.93927279  0.09968754  0.12113931     0.11500
H804        H  0.93371375  0.10703405  0.05418930     0.13400
H805        H  0.95619411  0.12044054  0.03106038     0.10000
H806        H  0.97999885  0.13751206  0.03319594     0.12100
H807        H  0.97667471  0.13942323  0.13046093     0.08700
H808        H  0.95265214  0.12253506  0.12840136     0.11400
C809        C  0.82394128  0.02418260  0.02637354    -0.03200
C810        C  0.82060898  0.01608534  0.99909579    -0.05800
C811        C  0.80531505  0.01697927  0.98580112    -0.20900
C812        C  0.79292828  0.02577126  0.99964175     0.24900
C813        C  0.79636877  0.03428409  0.02646279    -0.18400
C814        C  0.81172259  0.03351335  0.03963583    -0.08400
C815        C  0.77666831  0.02594812  0.98531646    -0.18700
C816        C  0.76290476  0.02689373  0.00129799    -0.23500
C817        C  0.74658524  0.02593861  0.98722640     0.26900
C818        C  0.73376754  0.01974043  0.00418833    -0.20300
C819        C  0.71835125  0.01830129  0.99153206    -0.09900
C820        C  0.71530735  0.02334218  0.96176239    -0.10400
C821        C  0.72799268  0.03007231  0.94510167    -0.03400
C822        C  0.74348118  0.03129096  0.95761471    -0.18500
H823        H  0.82975502  0.00883895  0.98823952     0.10600
H824        H  0.80303727  0.01045014  0.96497455     0.10700
H825        H  0.78724427  0.04158098  0.03723191     0.10300
H826        H  0.81395223  0.04002921  0.06048337     0.11400
H827        H  0.77603360  0.02395573  0.96107184     0.11500
H828        H  0.76356920  0.02722723  0.02581729     0.13400
H829        H  0.73575783  0.01570459  0.02715290     0.10000
H830        H  0.70880469  0.01320441  0.00505392     0.12100
H831        H  0.72600147  0.03417192  0.92218782     0.08700
H832        H  0.75293790  0.03657276  0.94416162     0.11400
C833        C  0.90203971  0.98205054  0.02959178    -0.03200
C834        C  0.91599955  0.98751695  0.01515278    -0.05800
C835        C  0.92753096  0.97661488  0.00480503    -0.20900
C836        C  0.92546967  0.96000107  0.00878874     0.24900
C837        C  0.91136738  0.95444605  0.02286127    -0.18400
C838        C  0.89978076  0.96538942  0.03321290    -0.08400
C839        C  0.93801129  0.94897095  0.99676792    -0.18700
C840        C  0.94071356  0.93400456  0.00722537    -0.23500
C841        C  0.95354170  0.92344485  0.99471294     0.26900
C842        C  0.96095721  0.91205035  0.01350467    -0.20300
C843        C  0.97289932  0.90179974  0.00220502    -0.09900
C844        C  0.97751439  0.90258739  0.97171505    -0.10400
C845        C  0.97004140  0.91395145  0.95286906    -0.03400
C846        C  0.95816969  0.92423806  0.96419028    -0.18500
H847        H  0.91814269  0.00026865  0.01221227     0.10600
H848        H  0.93822109  0.98120812  0.99388523     0.10700
H849        H  0.90914186  0.94170740  0.02557627     0.10300
H850        H  0.88911042  0.96081923  0.04422073     0.11400
H851        H  0.94591178  0.95377005  0.97951924     0.11500
H852        H  0.93397410  0.92963488  0.02648877     0.13400
H853        H  0.95754478  0.91112625  0.03703728     0.10000
H854        H  0.97839013  0.89313286  0.01726084     0.12100
H855        H  0.97320241  0.91474433  0.92920000     0.08700
H856        H  0.95238828  0.93252889  0.94879765     0.11400
C857        C  0.13748431  0.55819477  0.08386790    -0.03200
C858        C  0.13570556  0.56791820  0.05820235    -0.05800
C859        C  0.12585240  0.58153971  0.05896203    -0.20900
C860        C  0.11736819  0.58574358  0.08524821     0.24900
C861        C  0.11966268  0.57634752  0.11138586    -0.18400
C862        C  0.12966942  0.56276514  0.11067035    -0.08400
C863        C  0.10558905  0.59927444  0.08324608    -0.18700
C864        C  0.09548759  0.60393766  0.10544459    -0.23500
C865        C  0.08223592  0.61573245  0.10041492     0.26900
C866        C  0.07590746  0.62431634  0.12508553    -0.20300
C867        C  0.06272185  0.63464586  0.12125609    -0.09900
C868        C  0.05546259  0.63639845  0.09269709    -0.10400
C869        C  0.06183162  0.62788063  0.06804842    -0.03400
C870        C  0.07500148  0.61765125  0.07182369    -0.18500
H871        H  0.14166111  0.56479771  0.03725836     0.10600
H872        H  0.12445028  0.58853632  0.03850932     0.10700
H873        H  0.11355263  0.57908240  0.13226780     0.10300
H874        H  0.13084679  0.55551608  0.13084378     0.11400
H875        H  0.10480326  0.60531326  0.06158662     0.11500
H876        H  0.09656328  0.59888257  0.12788292     0.13400
H877        H  0.08109260  0.62291150  0.14742262     0.10000
H878        H  0.05799550  0.64096900  0.14073589     0.12100
H879        H  0.05641678  0.62885974  0.04582321     0.08700
H880        H  0.07904833  0.61083904  0.05242596     0.11400
C881        C  0.01791198  0.71142549  0.03742618    -0.03200
C882        C  0.03315346  0.71875520  0.03673713    -0.05800
C883        C  0.03491372  0.73457221  0.02641607    -0.20900
C884        C  0.02147572  0.74349597  0.01695783     0.24900
C885        C  0.00628462  0.73599505  0.01681360    -0.18400
C886        C  0.00453965  0.72014839  0.02693774    -0.08400
C887        C  0.02376670  0.76039510  0.00664564    -0.18700
C888        C  0.01217895  0.77171486  0.00867448    -0.23500
C889        C  0.01399822  0.78862781  0.99803412     0.26900
C890        C  0.00327229  0.80034677  0.00887777    -0.20300
C891        C  0.00380888  0.81615047  0.99810664    -0.09900
C892        C  0.01500328  0.82058499  0.97594055    -0.10400
C893        C  0.02588054  0.80894575  0.96529628    -0.03400
C894        C  0.02540664  0.79314523  0.97619302    -0.18500
H895        H  0.04370471  0.71233886  0.04455918     0.10600
H896        H  0.04677893  0.73996822  0.02637967     0.10700
H897        H  0.99572875  0.74226515  0.00867360     0.10300
H898        H  0.99265736  0.71480174  0.02695613     0.11400
H899        H  0.03561444  0.76369539  0.99856011     0.11500
H900        H  0.00088703  0.76863704  0.01945998     0.13400
H901        H  0.99429310  0.79721441  0.02552948     0.10000
H902        H  0.99518883  0.82480124  0.00662358     0.12100
H903        H  0.03456665  0.81196702  0.94804833     0.08700
H904        H  0.03363167  0.78445114  0.96664159     0.11400
C905        C  0.89694205  0.47438260  0.92021006    -0.03200
C906        C  0.90022904  0.46768860  0.89169474    -0.05800
C907        C  0.91082757  0.45471005  0.88893907    -0.20900
C908        C  0.91816638  0.44803059  0.91461008     0.24900
C909        C  0.91465747  0.45460183  0.94321160    -0.18400
C910        C  0.90414339  0.46762060  0.94593847    -0.08400
C911        C  0.93040635  0.43519487  0.91055568    -0.18700
C912        C  0.93437407  0.42467953  0.93246207    -0.23500
C913        C  0.94811987  0.41327165  0.93051820     0.26900
C914        C  0.95430655  0.40690256  0.95751019    -0.20300
C915        C  0.96788341  0.39700163  0.95728974    -0.09900
C916        C  0.97552666  0.39313690  0.92997178    -0.10400
C917        C  0.96904770  0.39902576  0.90280811    -0.03400
C918        C  0.95544934  0.40893980  0.90301132    -0.18500
H919        H  0.89494194  0.47274305  0.87143702     0.10600
H920        H  0.91346891  0.44999714  0.86664018     0.10700
H921        H  0.92046817  0.45020326  0.96346394     0.10300
H922        H  0.90194513  0.47263393  0.96817428     0.11400
H923        H  0.93659206  0.43489896  0.88905281     0.11500
H924        H  0.92784511  0.42497757  0.95364306     0.13400
H925        H  0.94885661  0.40993186  0.97899479     0.10000
H926        H  0.97255639  0.39259863  0.97858977     0.12100
H927        H  0.97460267  0.39611865  0.88137449     0.08700
H928        H  0.95082458  0.41311056  0.88157602     0.11400
C929        C  0.71301671  0.50828397  0.02735943    -0.03200
C930        C  0.71601499  0.51083334  0.99653104    -0.05800
C931        C  0.73154223  0.50908475  0.98488280    -0.20900
C932        C  0.74450519  0.50488222  0.00373410     0.24900
C933        C  0.74140215  0.50176164  0.03445345    -0.18400
C934        C  0.72583259  0.50347903  0.04610066    -0.08400
C935        C  0.76092660  0.50387181  0.99028663    -0.18700
C936        C  0.77470852  0.50484277  0.00648990    -0.23500
C937        C  0.79118250  0.50498463  0.99303253     0.26900
C938        C  0.80419818  0.50981160  0.01133570    -0.20300
C939        C  0.81975828  0.51092367  0.99954329    -0.09900
C940        C  0.82270857  0.50716723  0.96909324    -0.10400
C941        C  0.80986736  0.50169503  0.95102536    -0.03400
C942        C  0.79429425  0.50056935  0.96281008    -0.18500
H943        H  0.70640058  0.51447590  0.98145535     0.10600
H944        H  0.73349189  0.51138116  0.96109106     0.10700
H945        H  0.75087720  0.49795571  0.04962181     0.10300
H946        H  0.72388564  0.50130968  0.06992736     0.11400
H947        H  0.76149449  0.50335150  0.96584167     0.11500
H948        H  0.77400739  0.50657162  0.03075740     0.13400
H949        H  0.80226977  0.51310032  0.03476128     0.10000
H950        H  0.82940769  0.51510297  0.01410429     0.12100
H951        H  0.81178276  0.49859496  0.92751418     0.08700
H952        H  0.78484983  0.49627246  0.94801171     0.11400
C953        C  0.90268341  0.55273914  0.96964814    -0.03200
C954        C  0.89808511  0.56176157  0.99508486    -0.05800
C955        C  0.90861036  0.57301676  0.00794218    -0.20900
C956        C  0.92384374  0.57571941  0.99539059     0.24900
C957        C  0.92858024  0.56650865  0.97018139    -0.18400
C958        C  0.91809350  0.55513059  0.95747101    -0.08400
C959        C  0.93449901  0.58798840  0.00964257    -0.18700
C960        C  0.94579022  0.59624397  0.99435450    -0.23500
C961        C  0.95630448  0.60869186  0.00852664     0.26900
C962        C  0.97125912  0.61202942  0.99531635    -0.20300
C963        C  0.98164481  0.62344570  0.00815380    -0.09900
C964        C  0.97719176  0.63195333  0.03431042    -0.10400
C965        C  0.96204195  0.62894199  0.04710932    -0.03400
C966        C  0.95168589  0.61747137  0.03435791    -0.18500
H967        H  0.88632707  0.56013569  0.00506978     0.10600
H968        H  0.90473703  0.57982990  0.02752689     0.10700
H969        H  0.94042186  0.56787155  0.96047255     0.10300
H970        H  0.92202793  0.54825217  0.93801989     0.11400
H971        H  0.93257599  0.59053168  0.03342185     0.11500
H972        H  0.94767972  0.59366561  0.97056641     0.13400
H973        H  0.97504414  0.60557263  0.97525095     0.10000
H974        H  0.99322835  0.62550213  0.99774792     0.12100
H975        H  0.95822240  0.63537700  0.06716685     0.08700
H976        H  0.94004466  0.61569447  0.04463682     0.11400
C977        C  0.90673000  0.84619694  0.69726924    -0.03200
C978        C  0.92116353  0.85265725  0.68581589    -0.05800
C979        C  0.93420954  0.85588471  0.70512797    -0.20900
C980        C  0.93324955  0.85259190  0.73615194     0.24900
C981        C  0.91862690  0.84691542  0.74782530    -0.18400
C982        C  0.90563796  0.84370472  0.72866264    -0.08400
C983        C  0.94750399  0.85538486  0.75599521    -0.18700
C984        C  0.95016572  0.84666136  0.78119040    -0.23500
C985        C  0.96339084  0.84952496  0.80343851     0.26900
C986        C  0.96549063  0.83829057  0.82676461    -0.20300
C987        C  0.97628103  0.84124348  0.85043472    -0.09900
C988        C  0.98529484  0.85553127  0.85135382    -0.10400
C989        C  0.98386062  0.86643510  0.82730666    -0.03400
C990        C  0.97297957  0.86351816  0.80361864    -0.18500
H991        H  0.92279532  0.85486311  0.66204168     0.10600
H992        H  0.94526140  0.86053772  0.69565051     0.10700
H993        H  0.91714648  0.84490265  0.77180033     0.10300
H994        H  0.89471195  0.83888368  0.73835513     0.11400
H995        H  0.95610308  0.86442288  0.74898745     0.11500
H996        H  0.94205518  0.83677388  0.78612433     0.13400
H997        H  0.95835234  0.82738180  0.82723441     0.10000
H998        H  0.97718454  0.83254745  0.86852984     0.12100
H999        H  0.99066225  0.87755245  0.82742451     0.08700
H1000       H  0.97172967  0.87259167  0.78635955     0.11400
C1001       C  0.87738109  0.84115847  0.59449420    -0.03200
C1002       C  0.86829329  0.83022904  0.57713686    -0.05800
C1003       C  0.86467849  0.83341318  0.54690194    -0.20900
C1004       C  0.86993818  0.84765551  0.53323258     0.24900
C1005       C  0.87932655  0.85850203  0.55032615    -0.18400
C1006       C  0.88293528  0.85530998  0.58064737    -0.08400
C1007       C  0.86551637  0.85056158  0.50111120    -0.18700
C1008       C  0.86486214  0.86531919  0.48862771    -0.23500
C1009       C  0.85951026  0.86838298  0.45701485     0.26900
C1010       C  0.85472162  0.88403242  0.44910840    -0.20300
C1011       C  0.84949906  0.88749448  0.41975322    -0.09900
C1012       C  0.84891836  0.87533039  0.39771568    -0.10400
C1013       C  0.85392272  0.85973140  0.40538820    -0.03400
C1014       C  0.85927188  0.85629052  0.43462323    -0.18500
H1015       H  0.86397925  0.81912521  0.58673220     0.10600
H1016       H  0.85756438  0.82476977  0.53422204     0.10700
H1017       H  0.88400858  0.86941105  0.54044206     0.10300
H1018       H  0.88978282  0.86412888  0.59335550     0.11400
H1019       H  0.86162856  0.84017978  0.48807991     0.11500
H1020       H  0.86741309  0.87578725  0.50257000     0.13400
H1021       H  0.85490912  0.89360901  0.46578794     0.10000
H1022       H  0.84574794  0.89962872  0.41436420     0.12100
H1023       H  0.85407419  0.85023101  0.38856568     0.08700
H1024       H  0.86343549  0.84422839  0.43923896     0.11400
C1025       C  0.85973242  0.98898462  0.15375305    -0.03200
C1026       C  0.84397133  0.98367945  0.15914201    -0.05800
C1027       C  0.84103140  0.97160237  0.18029597    -0.20900
C1028       C  0.85372887  0.96470679  0.19675128     0.24900
C1029       C  0.86947078  0.97039609  0.19205915    -0.18400
C1030       C  0.87241544  0.98243291  0.17080193    -0.08400
C1031       C  0.85020066  0.95088823  0.21685368    -0.18700
C1032       C  0.85985845  0.94622688  0.23969406    -0.23500
C1033       C  0.85613949  0.93214901  0.25895476     0.26900
C1034       C  0.86125623  0.93214547  0.28915639    -0.20300
C1035       C  0.85768064  0.91920882  0.30810823    -0.09900
C1036       C  0.84908195  0.90575981  0.29705851    -0.10400
C1037       C  0.84451535  0.90562524  0.26635725    -0.03400
C1038       C  0.84793898  0.91863057  0.24756411    -0.18500
H1039       H  0.83397205  0.98840412  0.14616318     0.10600
H1040       H  0.82881410  0.96738581  0.18336075     0.10700
H1041       H  0.87964360  0.96514107  0.20368832     0.10300
H1042       H  0.88471357  0.98617371  0.16690403     0.11400
H1043       H  0.83891821  0.94457089  0.21311891     0.11500
H1044       H  0.87034804  0.95336333  0.24562823     0.13400
H1045       H  0.86779033  0.94235720  0.29830732     0.10000
H1046       H  0.86166101  0.92009456  0.33123976     0.12100
H1047       H  0.83805502  0.89542841  0.25697304     0.08700
H1048       H  0.84429696  0.91798124  0.22407978     0.11400
C1049       C  0.73511265  0.86768228  0.67161760    -0.03200
C1050       C  0.73984124  0.85153573  0.66829336    -0.05800
C1051       C  0.75608212  0.84733542  0.66807903    -0.20900
C1052       C  0.76804076  0.85910206  0.67141798     0.24900
C1053       C  0.76342536  0.87530890  0.67430514    -0.18400
C1054       C  0.74714782  0.87953488  0.67435931    -0.08400
C1055       C  0.78510695  0.85393101  0.67060092    -0.18700
C1056       C  0.79734849  0.86242915  0.68275323    -0.23500
C1057       C  0.81431909  0.85689325  0.68154576     0.26900
C1058       C  0.82673065  0.86834460  0.68301998    -0.20300
C1059       C  0.84282497  0.86359910  0.68069097    -0.09900
C1060       C  0.84674021  0.84730015  0.67688062    -0.10400
C1061       C  0.83440565  0.83578704  0.67658059    -0.03400
C1062       C  0.81836462  0.84049244  0.67912564    -0.18500
H1063       H  0.73111740  0.84197948  0.66622104     0.10600
H1064       H  0.75931902  0.83477297  0.66557508     0.10700
H1065       H  0.77228023  0.88481525  0.67580008     0.10300
H1066       H  0.74406787  0.89215246  0.67599614     0.11400
H1067       H  0.78752861  0.84246917  0.65972904     0.11500
H1068       H  0.79504541  0.87398431  0.69336251     0.13400
H1069       H  0.82394241  0.88102580  0.68522259     0.10000
H1070       H  0.85216056  0.87269326  0.68086101     0.12100
H1071       H  0.83718057  0.82310028  0.67440879     0.08700
H1072       H  0.80924466  0.83121375  0.67935053     0.11400
C1073       C  0.68868569  0.90343615  0.70023653    -0.03200
C1074       C  0.69596071  0.91781209  0.69043453    -0.05800
C1075       C  0.69394243  0.93219497  0.70643875    -0.20900
C1076       C  0.68413998  0.93277516  0.73208912     0.24900
C1077       C  0.67601418  0.91871613  0.74092743    -0.18400
C1078       C  0.67822293  0.90423942  0.72519653    -0.08400
C1079       C  0.68373108  0.94776818  0.75055624    -0.18700
C1080       C  0.67115592  0.95185955  0.76806237    -0.23500
C1081       C  0.67115938  0.96581713  0.78927468     0.26900
C1082       C  0.65634480  0.97170683  0.79962989    -0.20300
C1083       C  0.65571597  0.98339927  0.82241881    -0.09900
C1084       C  0.66992502  0.98938827  0.83560999    -0.10400
C1085       C  0.68479373  0.98399770  0.82444386    -0.03400
C1086       C  0.68542788  0.97231452  0.80155486    -0.18500
H1087       H  0.70394299  0.91770733  0.67114374     0.10600
H1088       H  0.70033713  0.94283909  0.69911067     0.10700
H1089       H  0.66853923  0.91862872  0.76088792     0.10300
H1090       H  0.67204258  0.89378201  0.73356588     0.11400
H1091       H  0.69409238  0.95568534  0.74935799     0.11500
H1092       H  0.66025909  0.94466994  0.76689043     0.13400
H1093       H  0.64518177  0.96689315  0.79066854     0.10000
H1094       H  0.64406763  0.98726897  0.83054836     0.12100
H1095       H  0.69594992  0.98829312  0.83430296     0.08700
H1096       H  0.69709128  0.96786727  0.79473523     0.11400
C1097       C  0.69055100  0.86886926  0.60533187    -0.03200
C1098       C  0.68723037  0.85272314  0.59818048    -0.05800
C1099       C  0.68316276  0.84819917  0.56875148    -0.20900
C1100       C  0.68214082  0.85967320  0.54566660     0.24900
C1101       C  0.68548908  0.87590401  0.55272798    -0.18400
C1102       C  0.68956187  0.88044676  0.58235416    -0.08400
C1103       C  0.67789374  0.85391330  0.51473417    -0.18700
C1104       C  0.67314850  0.86348313  0.49185634    -0.23500
C1105       C  0.66876758  0.85727474  0.46125354     0.26900
C1106       C  0.65964629  0.86709560  0.44198256    -0.20300
C1107       C  0.65580414  0.86204055  0.41264269    -0.09900
C1108       C  0.66098066  0.84696514  0.40182398    -0.10400
C1109       C  0.66984129  0.83700281  0.42132093    -0.03400
C1110       C  0.67385570  0.84213665  0.45050675    -0.18500
H1111       H  0.68747614  0.84353333  0.61544593     0.10600
H1112       H  0.68066614  0.83563378  0.56407177     0.10700
H1113       H  0.68525714  0.88511321  0.53556396     0.10300
H1114       H  0.69221327  0.89295465  0.58718053     0.11400
H1115       H  0.67803076  0.84099274  0.51131462     0.11500
H1116       H  0.67174895  0.87629191  0.49575079     0.13400
H1117       H  0.65564634  0.87884498  0.44951815     0.10000
H1118       H  0.64924448  0.87023363  0.39820178     0.12100
H1119       H  0.67382087  0.82521685  0.41408634     0.08700
H1120       H  0.68126077  0.83428744  0.46410862     0.11400
C1121       C  0.63300835  0.84803864  0.29764956    -0.03200
C1122       C  0.61952772  0.85699715  0.30716436    -0.05800
C1123       C  0.60676541  0.86002618  0.28725555    -0.20900
C1124       C  0.60703503  0.85406064  0.25760399     0.24900
C1125       C  0.62076622  0.84579756  0.24756716    -0.18400
C1126       C  0.63356491  0.84289840  0.26729104    -0.08400
C1127       C  0.59306527  0.85697065  0.23734241    -0.18700
C1128       C  0.58887023  0.84652499  0.21533860    -0.23500
C1129       C  0.57603893  0.84940472  0.19251057     0.26900
C1130       C  0.57632765  0.84009351  0.16602598    -0.20300
C1131       C  0.56537956  0.84290433  0.14272400    -0.09900
C1132       C  0.55373947  0.85504613  0.14540276    -0.10400
C1133       C  0.55288782  0.86394484  0.17241914    -0.03400
C1134       C  0.56393815  0.86115433  0.19584359    -0.18500
H1135       H  0.61842172  0.86152334  0.32989718     0.10600
H1136       H  0.59643878  0.86671548  0.29529139     0.10700
H1137       H  0.62171884  0.84161616  0.22445049     0.10300
H1138       H  0.64383413  0.83619634  0.25902655     0.11400
H1139       H  0.58620844  0.86789905  0.24092154     0.11500
H1140       H  0.59572299  0.83547129  0.21291962     0.13400
H1141       H  0.58540243  0.83088388  0.16291864     0.10000
H1142       H  0.56631613  0.83579910  0.12223326     0.12100
H1143       H  0.54397066  0.87333349  0.17512676     0.08700
H1144       H  0.56297583  0.86828844  0.21622858     0.11400
C1145       C  0.69245382  0.84808790  0.32251656    -0.03200
C1146       C  0.69611766  0.86448303  0.31950118    -0.05800
C1147       C  0.71212283  0.86965115  0.31954004    -0.20900
C1148       C  0.72473395  0.85854674  0.32262459     0.24900
C1149       C  0.72101117  0.84204206  0.32445281    -0.18400
C1150       C  0.70502179  0.83692646  0.32463553    -0.08400
C1151       C  0.74153928  0.86461350  0.32326068    -0.18700
C1152       C  0.75388020  0.85622540  0.33504412    -0.23500
C1153       C  0.77073425  0.86194111  0.33449967     0.26900
C1154       C  0.78299578  0.85044162  0.33319115    -0.20300
C1155       C  0.79905772  0.85517235  0.33249977    -0.09900
C1156       C  0.80330472  0.87148575  0.33354824    -0.10400
C1157       C  0.79102325  0.88307985  0.33523220    -0.03400
C1158       C  0.77485485  0.87835829  0.33576446    -0.18500
H1159       H  0.68659551  0.87334243  0.31812724     0.10600
H1160       H  0.71465361  0.88240087  0.31778505     0.10700
H1161       H  0.73031338  0.83297735  0.32546187     0.10300
H1162       H  0.70249372  0.82421596  0.32627037     0.11400
H1163       H  0.74373520  0.87645220  0.31384409     0.11500
H1164       H  0.75183135  0.84439626  0.34453496     0.13400
H1165       H  0.78012442  0.83772939  0.33215153     0.10000
H1166       H  0.80806128  0.84600063  0.33042720     0.12100
H1167       H  0.79391902  0.89576883  0.33650509     0.08700
H1168       H  0.76568105  0.88753186  0.33767734     0.11400
C1169       C  0.65568271  0.73521565  0.65323628    -0.03200
C1170       C  0.64280279  0.74611115  0.65529409    -0.05800
C1171       C  0.64567249  0.76250635  0.65965106    -0.20900
C1172       C  0.66143499  0.76829354  0.66254721     0.24900
C1173       C  0.67435944  0.75750248  0.65948487    -0.18400
C1174       C  0.67147559  0.74111059  0.65479015    -0.08400
C1175       C  0.66396563  0.78569181  0.66796925    -0.18700
C1176       C  0.67633571  0.79144539  0.68450298    -0.23500
C1177       C  0.67953042  0.80888517  0.68874400     0.26900
C1178       C  0.69528288  0.81376150  0.69566389    -0.20300
C1179       C  0.69930417  0.83005946  0.69614369    -0.09900
C1180       C  0.68761025  0.84174271  0.69007785    -0.10400
C1181       C  0.67159949  0.83704942  0.68558803    -0.03400
C1182       C  0.66754198  0.82072095  0.68500815    -0.18500
H1183       H  0.63048619  0.74193377  0.65370908     0.10600
H1184       H  0.63554532  0.77064981  0.66144802     0.10700
H1185       H  0.68667945  0.76168823  0.66061574     0.10300
H1186       H  0.68159897  0.73303068  0.65343474     0.11400
H1187       H  0.65516298  0.79382837  0.65832372     0.11500
H1188       H  0.68496162  0.78307326  0.69412893     0.13400
H1189       H  0.70466973  0.80492685  0.69926976     0.10000
H1190       H  0.71166309  0.83353594  0.70023740     0.12100
H1191       H  0.66242768  0.84595731  0.68086504     0.08700
H1192       H  0.65511874  0.81750080  0.68095881     0.11400
C1193       C  0.62649918  0.68559437  0.68455922    -0.03200
C1194       C  0.61178018  0.67952243  0.67332516    -0.05800
C1195       C  0.59925101  0.67563218  0.69305309    -0.20900
C1196       C  0.60101529  0.67790696  0.72429467     0.24900
C1197       C  0.61589445  0.68329120  0.73565741    -0.18400
C1198       C  0.62836992  0.68719534  0.71605575    -0.08400
C1199       C  0.58721197  0.67465359  0.74460878    -0.18700
C1200       C  0.58512125  0.68295544  0.77050945    -0.23500
C1201       C  0.57218823  0.68011464  0.79301279     0.26900
C1202       C  0.57216080  0.68985792  0.81898293    -0.20300
C1203       C  0.56111979  0.68726982  0.84204216    -0.09900
C1204       C  0.54969519  0.67489721  0.83969612    -0.10400
C1205       C  0.54929101  0.66537625  0.81339301    -0.03400
C1206       C  0.56047551  0.66790268  0.79024087    -0.18500
H1207       H  0.60944699  0.67834476  0.64943656     0.10600
H1208       H  0.58793289  0.67137221  0.68378938     0.10700
H1209       H  0.61794567  0.68460986  0.75970516     0.10300
H1210       H  0.63945009  0.69192645  0.72552369     0.11400
H1211       H  0.57850514  0.66572163  0.73735656     0.11500
H1212       H  0.59353151  0.69257344  0.77583164     0.13400
H1213       H  0.58097422  0.69936471  0.82180309     0.10000
H1214       H  0.56172140  0.69483169  0.86201051     0.12100
H1215       H  0.54063922  0.65569443  0.81110056     0.08700
H1216       H  0.55999439  0.66006951  0.77072675     0.11400
C1217       C  0.69420330  0.66107619  0.39242612    -0.03200
C1218       C  0.69082512  0.64826372  0.41200054    -0.05800
C1219       C  0.68484545  0.65125388  0.44098608    -0.20900
C1220       C  0.68197022  0.66707187  0.45085006     0.24900
C1221       C  0.68578084  0.67989748  0.43146784    -0.18400
C1222       C  0.69171081  0.67690809  0.40254839    -0.08400
C1223       C  0.67537779  0.66972401  0.48164125    -0.18700
C1224       C  0.66784668  0.68336735  0.49009699    -0.23500
C1225       C  0.66219454  0.68637231  0.52131990     0.26900
C1226       C  0.66194864  0.70226578  0.53215433    -0.20300
C1227       C  0.65761931  0.70555415  0.56200762    -0.09900
C1228       C  0.65305114  0.69303307  0.58126737    -0.10400
C1229       C  0.65256036  0.67720043  0.57011926    -0.03400
C1230       C  0.65714101  0.67386662  0.54039830    -0.18500
H1231       H  0.69280876  0.63594105  0.40490866     0.10600
H1232       H  0.68225360  0.64116592  0.45561309     0.10700
H1233       H  0.68435359  0.69229102  0.43842365     0.10300
H1234       H  0.69396296  0.68705605  0.38790038     0.11400
H1235       H  0.67685479  0.66005364  0.49783641     0.11500
H1236       H  0.66631537  0.69310811  0.47412872     0.13400
H1237       H  0.66562208  0.71210793  0.51775621     0.10000
H1238       H  0.65803373  0.71784958  0.57019928     0.12100
H1239       H  0.64921114  0.66733497  0.58473044     0.08700
H1240       H  0.65673170  0.66153440  0.53250540     0.11400
C1241       C  0.69258982  0.63395266  0.28824652    -0.03200
C1242       C  0.68284097  0.62093268  0.29730086    -0.05800
C1243       C  0.67897659  0.60854492  0.27701282    -0.20900
C1244       C  0.68483352  0.60871188  0.24736221     0.24900
C1245       C  0.69381463  0.62207475  0.23776970    -0.18400
C1246       C  0.69760787  0.63448244  0.25792398    -0.08400
C1247       C  0.68114470  0.59494528  0.22690348    -0.18700
C1248       C  0.69058030  0.59092083  0.20336386    -0.23500
C1249       C  0.68676995  0.57787205  0.18145936     0.26900
C1250       C  0.69332376  0.57885645  0.15236591    -0.20300
C1251       C  0.68974990  0.56721347  0.13053520    -0.09900
C1252       C  0.67972597  0.55414560  0.13747107    -0.10400
C1253       C  0.67355164  0.55282228  0.16686649    -0.03400
C1254       C  0.67701197  0.56459054  0.18869763    -0.18500
H1255       H  0.67833874  0.61984071  0.31997894     0.10600
H1256       H  0.67172725  0.59855498  0.28477578     0.10700
H1257       H  0.69791425  0.62308434  0.21468973     0.10300
H1258       H  0.70486458  0.64442368  0.24998364     0.11400
H1259       H  0.67043911  0.58794495  0.23166442     0.11500
H1260       H  0.70137483  0.59786644  0.19902248     0.13400
H1261       H  0.70099297  0.58887162  0.14629486     0.10000
H1262       H  0.69476100  0.56851529  0.10812005     0.12100
H1263       H  0.66586328  0.54281810  0.17285978     0.08700
H1264       H  0.67213894  0.56314902  0.21114772     0.11400
C1265       C  0.69625725  0.69320755  0.31520025    -0.03200
C1266       C  0.70861498  0.70464537  0.31653626    -0.05800
C1267       C  0.70503749  0.72099686  0.31867265    -0.20900
C1268       C  0.68901958  0.72623290  0.31984149     0.24900
C1269       C  0.67657757  0.71477082  0.31720021    -0.18400
C1270       C  0.68020335  0.69836883  0.31488833    -0.08400
C1271       C  0.68595313  0.74372469  0.32341843    -0.18700
C1272       C  0.67219758  0.74987394  0.33446528    -0.23500
C1273       C  0.66937742  0.76742517  0.33746212     0.26900
C1274       C  0.65358781  0.77318677  0.33545280    -0.20300
C1275       C  0.65050238  0.78968338  0.33634695    -0.09900
C1276       C  0.66317083  0.80083531  0.33936479    -0.10400
C1277       C  0.67887999  0.79498353  0.34334019    -0.03400
C1278       C  0.68198042  0.77845726  0.34234210    -0.18500
H1279       H  0.72106145  0.70091363  0.31628083     0.10600
H1280       H  0.71483779  0.72956702  0.32016878     0.10700
H1281       H  0.66407469  0.71833979  0.31694922     0.10300
H1282       H  0.67048974  0.68968489  0.31403719     0.11400
H1283       H  0.69562995  0.75180543  0.31713396     0.11500
H1284       H  0.66238931  0.74193324  0.34058271     0.13400
H1285       H  0.64363087  0.76491342  0.33239371     0.10000
H1286       H  0.63815074  0.79366027  0.33441491     0.12100
H1287       H  0.68889807  0.80308490  0.34637219     0.08700
H1288       H  0.69424403  0.77440338  0.34536973     0.11400
C1289       C  0.79737611  0.66405157  0.65696847    -0.03200
C1290       C  0.79317001  0.67984109  0.64876830    -0.05800
C1291       C  0.77709119  0.68431543  0.64531543    -0.20900
C1292       C  0.76471775  0.67312702  0.64960427     0.24900
C1293       C  0.76881843  0.65709075  0.65612230    -0.18400
C1294       C  0.78493787  0.65262612  0.65974785    -0.08400
C1295       C  0.74780231  0.67868345  0.64648075    -0.18700
C1296       C  0.73520846  0.67126613  0.65954336    -0.23500
C1297       C  0.71833227  0.67721502  0.65783368     0.26900
C1298       C  0.70582717  0.66666766  0.66552602    -0.20300
C1299       C  0.68980862  0.67179035  0.66509001    -0.09900
C1300       C  0.68587576  0.68768911  0.65715712    -0.10400
C1301       C  0.69841113  0.69823024  0.64941947    -0.03400
C1302       C  0.71442394  0.69313211  0.64990462    -0.18500
H1303       H  0.80210275  0.68899521  0.64539713     0.10600
H1304       H  0.77430290  0.69668831  0.63971305     0.10700
H1305       H  0.75968872  0.64789321  0.65815784     0.10300
H1306       H  0.78755990  0.64015562  0.66459044     0.11400
H1307       H  0.74590974  0.68961500  0.63369096     0.11500
H1308       H  0.73723151  0.66036558  0.67240940     0.13400
H1309       H  0.70845033  0.65434521  0.67173708     0.10000
H1310       H  0.68052250  0.66314803  0.67044167     0.12100
H1311       H  0.69600491  0.71055031  0.64337865     0.08700
H1312       H  0.72359949  0.70188231  0.64466874     0.11400
C1313       C  0.84035978  0.63179442  0.70985302    -0.03200
C1314       C  0.83501326  0.63373371  0.73978638    -0.05800
C1315       C  0.83813953  0.62210647  0.76157628    -0.20900
C1316       C  0.84625725  0.60791538  0.75398458     0.24900
C1317       C  0.85126670  0.60557015  0.72397202    -0.18400
C1318       C  0.84836259  0.61739917  0.70210569    -0.08400
C1319       C  0.84953899  0.59624884  0.77846844    -0.18700
C1320       C  0.85130431  0.58028395  0.77428594    -0.23500
C1321       C  0.85325962  0.56896064  0.79999756     0.26900
C1322       C  0.86081539  0.55404768  0.79528779    -0.20300
C1323       C  0.86321783  0.54341995  0.81940847    -0.09900
C1324       C  0.85795931  0.54751296  0.84859537    -0.10400
C1325       C  0.84983125  0.56211341  0.85299024    -0.03400
C1326       C  0.84741271  0.57265910  0.82902117    -0.18500
H1327       H  0.82852797  0.64447263  0.74645065     0.10600
H1328       H  0.83408091  0.62417592  0.78450642     0.10700
H1329       H  0.85771799  0.59481556  0.71742030     0.10300
H1330       H  0.85233175  0.61501672  0.67935425     0.11400
H1331       H  0.84991775  0.60117652  0.80119519     0.11500
H1332       H  0.85126993  0.57529907  0.75157807     0.13400
H1333       H  0.86515683  0.55076823  0.77305063     0.10000
H1334       H  0.86940646  0.53215957  0.81533550     0.12100
H1335       H  0.84543634  0.56550631  0.87512798     0.08700
H1336       H  0.84079677  0.58360420  0.83345237     0.11400
C1337       C  0.87169479  0.79971533  0.66677008    -0.03200
C1338       C  0.86563376  0.79162858  0.64129064    -0.05800
C1339       C  0.85999979  0.77583882  0.64365408    -0.20900
C1340       C  0.86031165  0.76783546  0.67153972     0.24900
C1341       C  0.86618670  0.77603658  0.69717321    -0.18400
C1342       C  0.87190148  0.79178431  0.69473524    -0.08400
C1343       C  0.85399047  0.75116398  0.67310703    -0.18700
C1344       C  0.85822772  0.74056111  0.69467641    -0.23500
C1345       C  0.85240169  0.72372470  0.69416943     0.26900
C1346       C  0.86269609  0.71129142  0.70342430    -0.20300
C1347       C  0.85797212  0.69519812  0.70031419    -0.09900
C1348       C  0.84277280  0.69134455  0.68827702    -0.10400
C1349       C  0.83213362  0.70384813  0.68106239    -0.03400
C1350       C  0.83686786  0.71987506  0.68389199    -0.18500
H1351       H  0.86539719  0.79743033  0.61948685     0.10600
H1352       H  0.85545011  0.76982462  0.62359683     0.10700
H1353       H  0.86609338  0.77050739  0.71925440     0.10300
H1354       H  0.87612098  0.79791548  0.71490787     0.11400
H1355       H  0.84626186  0.74717314  0.65467562     0.11500
H1356       H  0.86721799  0.74377511  0.71149420     0.13400
H1357       H  0.87465120  0.71401530  0.71183313     0.10000
H1358       H  0.86643357  0.68580233  0.70616624     0.12100
H1359       H  0.82014925  0.70129119  0.67312596     0.08700
H1360       H  0.82840561  0.72923225  0.67782750     0.11400
C1361       C  0.88194004  0.73737082  0.34794358    -0.03200
C1362       C  0.87410940  0.74519355  0.37193915    -0.05800
C1363       C  0.86977619  0.76139627  0.36968475    -0.20900
C1364       C  0.87334940  0.77026885  0.34362521     0.24900
C1365       C  0.88136683  0.76256506  0.31972848    -0.18400
C1366       C  0.88556291  0.74632893  0.32184839    -0.08400
C1367       C  0.86743972  0.78708842  0.34147914    -0.18700
C1368       C  0.87285395  0.79805309  0.32151703    -0.23500
C1369       C  0.86562865  0.81434932  0.31916241     0.26900
C1370       C  0.87496736  0.82744548  0.30954973    -0.20300
C1371       C  0.86843495  0.84301179  0.30888520    -0.09900
C1372       C  0.85239204  0.84569226  0.31763353    -0.10400
C1373       C  0.84296145  0.83237555  0.32562929    -0.03400
C1374       C  0.84939438  0.81694298  0.32615804    -0.18500
H1375       H  0.87127659  0.73889074  0.39255579     0.10600
H1376       H  0.86349940  0.76700707  0.38837100     0.10700
H1377       H  0.88388795  0.76878493  0.29886323     0.10300
H1378       H  0.89111660  0.74073503  0.30241743     0.11400
H1379       H  0.85826192  0.79062435  0.35758383     0.11500
H1380       H  0.88310400  0.79533171  0.30730032     0.13400
H1381       H  0.88746544  0.82571246  0.30353668     0.10000
H1382       H  0.87615253  0.85297213  0.30283523     0.12100
H1383       H  0.83060205  0.83371687  0.33201606     0.08700
H1384       H  0.84156508  0.80707095  0.33220367     0.11400
C1385       C  0.88620070  0.69386560  0.41810625    -0.03200
C1386       C  0.88195277  0.70610043  0.43845706    -0.05800
C1387       C  0.87893864  0.70251270  0.46875484    -0.20900
C1388       C  0.87971857  0.68657875  0.47911098     0.24900
C1389       C  0.88452353  0.67438850  0.45894214    -0.18400
C1390       C  0.88778363  0.67802743  0.42873730    -0.08400
C1391       C  0.87520871  0.68319832  0.51090531    -0.18700
C1392       C  0.86833588  0.66926952  0.51972691    -0.23500
C1393       C  0.86192672  0.66634224  0.55068329     0.26900
C1394       C  0.85758701  0.65058421  0.55884644    -0.20300
C1395       C  0.85077959  0.64741194  0.58713322    -0.09900
C1396       C  0.84799588  0.65999746  0.60771244    -0.10400
C1397       C  0.85247916  0.67569472  0.59974385    -0.03400
C1398       C  0.85927321  0.67887166  0.57160783    -0.18500
H1399       H  0.88084340  0.71841975  0.43087336     0.10600
H1400       H  0.87546600  0.71214737  0.48394611     0.10700
H1401       H  0.88572622  0.66205531  0.46635275     0.10300
H1402       H  0.89099105  0.66835414  0.41344027     0.11400
H1403       H  0.87674342  0.69300905  0.52682706     0.11500
H1404       H  0.86676306  0.65966417  0.50327693     0.13400
H1405       H  0.85935973  0.64069827  0.54318078     0.10000
H1406       H  0.84739166  0.63519219  0.59265804     0.12100
H1407       H  0.85081253  0.68561188  0.61536372     0.08700
H1408       H  0.86202694  0.69124722  0.56643508     0.11400
C1409       C  0.91098583  0.68699340  0.31490773    -0.03200
C1410       C  0.90846176  0.67539360  0.29204314    -0.05800
C1411       C  0.92114920  0.67029283  0.27377514    -0.20900
C1412       C  0.93663282  0.67666325  0.27760576     0.24900
C1413       C  0.93945839  0.68756808  0.30137851    -0.18400
C1414       C  0.92680373  0.69257282  0.31987542    -0.08400
C1415       C  0.94931707  0.67189504  0.25584747    -0.18700
C1416       C  0.96157158  0.68164141  0.24815080    -0.23500
C1417       C  0.97228976  0.67814131  0.22218681     0.26900
C1418       C  0.97871922  0.69106850  0.20589608    -0.20300
C1419       C  0.98748272  0.68834080  0.17948366    -0.09900
C1420       C  0.99013906  0.67258875  0.16903054    -0.10400
C1421       C  0.98445354  0.65960397  0.18620479    -0.03400
C1422       C  0.97564702  0.66233765  0.21258286    -0.18500
H1423       H  0.89683103  0.67016658  0.28764167     0.10600
H1424       H  0.91873367  0.66164829  0.25592695     0.10700
H1425       H  0.95138156  0.69229811  0.30570492     0.10300
H1426       H  0.92927691  0.70120128  0.33771436     0.11400
H1427       H  0.94736371  0.66084104  0.24320114     0.11500
H1428       H  0.96259723  0.69342464  0.25866571     0.13400
H1429       H  0.97642754  0.70334677  0.21298067     0.10000
H1430       H  0.99180054  0.69858350  0.16681637     0.12100
H1431       H  0.98648363  0.64732380  0.17888202     0.08700
H1432       H  0.97135419  0.65206941  0.22516638     0.11400
C1433       C  0.74135427  0.66201985  0.33222932    -0.03200
C1434       C  0.75247482  0.64956205  0.32686242    -0.05800
C1435       C  0.76902702  0.65240120  0.32891021    -0.20900
C1436       C  0.77494972  0.66773156  0.33629673     0.24900
C1437       C  0.76389971  0.68008796  0.34258072    -0.18400
C1438       C  0.74735994  0.67726495  0.34049000    -0.08400
C1439       C  0.79266578  0.67017572  0.33796558    -0.18700
C1440       C  0.79982744  0.68466557  0.33530239    -0.23500
C1441       C  0.81753938  0.68713890  0.33694442     0.26900
C1442       C  0.82339113  0.70252820  0.34420101    -0.20300
C1443       C  0.83992121  0.70542830  0.34625193    -0.09900
C1444       C  0.85100456  0.69300731  0.34085858    -0.10400
C1445       C  0.84519746  0.67768602  0.33284575    -0.03400
C1446       C  0.82865215  0.67477143  0.33081994    -0.18500
H1447       H  0.74848933  0.63751277  0.32135242     0.10600
H1448       H  0.77725713  0.64257681  0.32446619     0.10700
H1449       H  0.76788207  0.69193221  0.34949871     0.10300
H1450       H  0.73944169  0.68722790  0.34509937     0.11400
H1451       H  0.79997795  0.65950461  0.34105994     0.11500
H1452       H  0.79250864  0.69533227  0.33218201     0.13400
H1453       H  0.81512669  0.71233438  0.34856925     0.10000
H1454       H  0.84400122  0.71746532  0.35175341     0.12100
H1455       H  0.85343448  0.66785481  0.32859833     0.08700
H1456       H  0.82471489  0.66287992  0.32412744     0.11400
C1457       C  0.04975129  0.35829259  0.84965149    -0.03200
C1458       C  0.04302103  0.35598824  0.82074966    -0.05800
C1459       C  0.05297939  0.35408048  0.79546384    -0.20900
C1460       C  0.06979292  0.35480407  0.79854771     0.24900
C1461       C  0.07645949  0.35693668  0.82755892    -0.18400
C1462       C  0.06656281  0.35865621  0.85275001    -0.08400
C1463       C  0.08025794  0.35240827  0.77170256    -0.18700
C1464       C  0.09485281  0.35943179  0.76956908    -0.23500
C1465       C  0.10714954  0.35557488  0.74622040     0.26900
C1466       C  0.12305864  0.36052162  0.75161113    -0.20300
C1467       C  0.13551134  0.35596118  0.73224429    -0.09900
C1468       C  0.13237101  0.34634614  0.70661269    -0.10400
C1469       C  0.11624316  0.34215008  0.70037841    -0.03400
C1470       C  0.10379239  0.34665388  0.71986849    -0.18500
H1471       H  0.03009277  0.35556559  0.81773110     0.10600
H1472       H  0.04755725  0.35218894  0.77342900     0.10700
H1473       H  0.08935397  0.35693140  0.83102376     0.10300
H1474       H  0.07211704  0.36031203  0.87473156     0.11400
H1475       H  0.07590551  0.34439789  0.75409808     0.11500
H1476       H  0.09848185  0.36785244  0.78715734     0.13400
H1477       H  0.12600392  0.36752307  0.77159432     0.10000
H1478       H  0.14750761  0.35969691  0.73831840     0.12100
H1479       H  0.11334555  0.33487757  0.68072188     0.08700
H1480       H  0.09169153  0.34290468  0.71427521     0.11400
C1481       C  0.15639832  0.34072558  0.60223618    -0.03200
C1482       C  0.15946114  0.32871847  0.58068860    -0.05800
C1483       C  0.16252543  0.33282702  0.55063798    -0.20900
C1484       C  0.16301953  0.34902640  0.54174797     0.24900
C1485       C  0.15960440  0.36104787  0.56328436    -0.18400
C1486       C  0.15629879  0.35691046  0.59322971    -0.08400
C1487       C  0.16727039  0.35284626  0.50997306    -0.18700
C1488       C  0.17459357  0.36664555  0.50179835    -0.23500
C1489       C  0.18033224  0.37006677  0.47062524     0.26900
C1490       C  0.18394361  0.38603811  0.46277370    -0.20300
C1491       C  0.19016201  0.38971656  0.43425456    -0.09900
C1492       C  0.19311825  0.37743479  0.41313064    -0.10400
C1493       C  0.18940633  0.36148304  0.42085943    -0.03400
C1494       C  0.18313670  0.35781040  0.44923742    -0.18500
H1495       H  0.15956775  0.31616228  0.58716136     0.10600
H1496       H  0.16496960  0.32333530  0.53444465     0.10700
H1497       H  0.15942043  0.37363147  0.55715328     0.10300
H1498       H  0.15412980  0.36639753  0.60956696     0.11400
H1499       H  0.16496153  0.34354912  0.49326233     0.11500
H1500       H  0.17692049  0.37582114  0.51877801     0.13400
H1501       H  0.18200420  0.39571074  0.47883366     0.10000
H1502       H  0.19288777  0.40212057  0.42888699     0.12100
H1503       H  0.19119650  0.35177053  0.40485213     0.08700
H1504       H  0.18092089  0.34530569  0.45434537     0.11400
C1505       C  0.19374897  0.40608900  0.31069322    -0.03200
C1506       C  0.18670996  0.42058697  0.32072318    -0.05800
C1507       C  0.18285609  0.43280876  0.30015584    -0.20900
C1508       C  0.18608446  0.43098115  0.26920849     0.24900
C1509       C  0.19284535  0.41642314  0.25911631    -0.18400
C1510       C  0.19679871  0.40430906  0.27958343    -0.08400
C1511       C  0.18193360  0.44424365  0.24794062    -0.18700
C1512       C  0.18939272  0.44620300  0.22116395    -0.23500
C1513       C  0.18500376  0.45848248  0.19811574     0.26900
C1514       C  0.19035060  0.45605242  0.16839202    -0.20300
C1515       C  0.18639472  0.46689979  0.14553088    -0.09900
C1516       C  0.17712400  0.48061607  0.15185367    -0.10400
C1517       C  0.17204029  0.48333233  0.18170643    -0.03400
C1518       C  0.17591223  0.47236896  0.20465801    -0.18500
H1519       H  0.18451094  0.42287953  0.34435702     0.10600
H1520       H  0.17759362  0.44387311  0.30854428     0.10700
H1521       H  0.19499243  0.41418733  0.23538701     0.10300
H1522       H  0.20233840  0.39341940  0.27102986     0.11400
H1523       H  0.17251463  0.45249870  0.25474902     0.11500
H1524       H  0.19906177  0.43806092  0.21510479     0.13400
H1525       H  0.19744852  0.44554767  0.16268247     0.10000
H1526       H  0.19055262  0.46447883  0.12279630     0.12100
H1527       H  0.16492393  0.49383928  0.18725550     0.08700
H1528       H  0.17187363  0.47493384  0.22735619     0.11400
C1529       C  0.17605514  0.04943391  0.86872909    -0.03200
C1530       C  0.18562114  0.06306708  0.87431812    -0.05800
C1531       C  0.18795016  0.07455436  0.85188756    -0.20900
C1532       C  0.18061264  0.07284420  0.82347333     0.24900
C1533       C  0.17129628  0.05901453  0.81752323    -0.18400
C1534       C  0.16905476  0.04740670  0.84000948    -0.08400
C1535       C  0.18320340  0.08575821  0.80095098    -0.18700
C1536       C  0.17335755  0.08869162  0.77737177    -0.23500
C1537       C  0.17625477  0.10221997  0.75630687     0.26900
C1538       C  0.17198600  0.10053872  0.72580166    -0.20300
C1539       C  0.17561605  0.11265621  0.70504036    -0.09900
C1540       C  0.18342581  0.12690546  0.71452706    -0.10400
C1541       C  0.18689830  0.12880577  0.74550484    -0.03400
C1542       C  0.18331348  0.11669359  0.76613590    -0.18500
H1543       H  0.19125949  0.06493268  0.89616447     0.10600
H1544       H  0.19530357  0.08499950  0.85697217     0.10700
H1545       H  0.16584018  0.05701476  0.79560611     0.10300
H1546       H  0.16170930  0.03695151  0.83504266     0.11400
H1547       H  0.19352209  0.09355301  0.80466650     0.11500
H1548       H  0.16315969  0.08089559  0.77280205     0.13400
H1549       H  0.16635914  0.08954828  0.71779792     0.10000
H1550       H  0.17273422  0.11033604  0.68167140     0.12100
H1551       H  0.19285314  0.13958970  0.75365200     0.08700
H1552       H  0.18619561  0.11867388  0.78973391     0.11400
C1553       C  0.15797842  0.29548602  0.66758547    -0.03200
C1554       C  0.14509317  0.28530827  0.67540561    -0.05800
C1555       C  0.14712868  0.26861730  0.67669892    -0.20900
C1556       C  0.16208684  0.26162877  0.67040895     0.24900
C1557       C  0.17475073  0.27164860  0.66097564    -0.18400
C1558       C  0.17269382  0.28834819  0.65952693    -0.08400
C1559       C  0.16400031  0.24388950  0.67352297    -0.18700
C1560       C  0.17817009  0.23697200  0.68068615    -0.23500
C1561       C  0.18081393  0.21930371  0.68332777     0.26900
C1562       C  0.19662546  0.21356338  0.68082983    -0.20300
C1563       C  0.19987231  0.19710201  0.68175175    -0.09900
C1564       C  0.18740494  0.18594666  0.68562975    -0.10400
C1565       C  0.17162473  0.19160843  0.68962673    -0.03400
C1566       C  0.16831891  0.20815736  0.68837853    -0.18500
H1567       H  0.13335805  0.29017226  0.68061505     0.10600
H1568       H  0.13705517  0.26115983  0.68329707     0.10700
H1569       H  0.18626651  0.26665285  0.65458386     0.10300
H1570       H  0.18281837  0.29556099  0.65269847     0.11400
H1571       H  0.15333882  0.23651282  0.67057580     0.11500
H1572       H  0.18863399  0.24459846  0.68406351     0.13400
H1573       H  0.20651072  0.22184717  0.67739059     0.10000
H1574       H  0.21217723  0.19306870  0.67910297     0.12100
H1575       H  0.16179262  0.18322051  0.69264462     0.08700
H1576       H  0.15603004  0.21209245  0.69134414     0.11400
C1577       C  0.17000499  0.23525700  0.34728668    -0.03200
C1578       C  0.18567191  0.24034923  0.35471616    -0.05800
C1579       C  0.18964938  0.25665019  0.35539625    -0.20900
C1580       C  0.17821515  0.26842552  0.34833853     0.24900
C1581       C  0.16243215  0.26355907  0.34137633    -0.18400
C1582       C  0.15835899  0.24718166  0.34103409    -0.08400
C1583       C  0.18333194  0.28554561  0.34948259    -0.18700
C1584       C  0.17636170  0.29750354  0.33365327    -0.23500
C1585       C  0.18257590  0.31432684  0.33409663     0.26900
C1586       C  0.17212478  0.32707341  0.32720052    -0.20300
C1587       C  0.17755480  0.34303512  0.32804887    -0.09900
C1588       C  0.19362813  0.34656064  0.33564310    -0.10400
C1589       C  0.20414336  0.33378753  0.34174361    -0.03400
C1590       C  0.19878263  0.31787139  0.34071442    -0.18500
H1591       H  0.19512553  0.23191079  0.35961397     0.10600
H1592       H  0.20188575  0.26007304  0.36105088     0.10700
H1593       H  0.15313227  0.27232880  0.33677761     0.10300
H1594       H  0.14600757  0.24399772  0.33616202     0.11400
H1595       H  0.19376737  0.28818869  0.36345021     0.11500
H1596       H  0.16575553  0.29501343  0.32001227     0.13400
H1597       H  0.15962633  0.32469708  0.32173539     0.10000
H1598       H  0.16906155  0.35261063  0.32362849     0.12100
H1599       H  0.21659932  0.33601430  0.34709508     0.08700
H1600       H  0.20746704  0.30845075  0.34478310     0.11400
C1601       C  0.16869856  0.18763131  0.40874383    -0.03200
C1602       C  0.18484810  0.18493181  0.41665565    -0.05800
C1603       C  0.18893704  0.17934442  0.44530522    -0.20900
C1604       C  0.17702169  0.17601944  0.46669783     0.24900
C1605       C  0.16076608  0.17832851  0.45872339    -0.18400
C1606       C  0.15665700  0.18407502  0.42994952    -0.08400
C1607       C  0.18232301  0.17119654  0.49743056    -0.18700
C1608       C  0.17320639  0.16293956  0.51714267    -0.23500
C1609       C  0.17863410  0.15860567  0.54827989     0.26900
C1610       C  0.16723544  0.15258042  0.56868195    -0.20300
C1611       C  0.17154391  0.14912744  0.59855863    -0.09900
C1612       C  0.18738569  0.15164064  0.60871443    -0.10400
C1613       C  0.19890121  0.15714850  0.58819537    -0.03400
C1614       C  0.19466556  0.16047446  0.55830895    -0.18500
H1615       H  0.19443179  0.18691852  0.40062392     0.10600
H1616       H  0.20153027  0.17759345  0.45078678     0.10700
H1617       H  0.15124760  0.17622472  0.47482022     0.10300
H1618       H  0.14410179  0.18605478  0.42453736     0.11400
H1619       H  0.19444924  0.17468165  0.50353746     0.11500
H1620       H  0.16113408  0.15936988  0.51050234     0.13400
H1621       H  0.15484376  0.15088638  0.56168682     0.10000
H1622       H  0.16232888  0.14505679  0.61397193     0.12100
H1623       H  0.21124363  0.15888575  0.59520219     0.08700
H1624       H  0.20412602  0.16448506  0.54352025     0.11400
C1625       C  0.13780117  0.18811039  0.30827452    -0.03200
C1626       C  0.12389466  0.18048243  0.31960028    -0.05800
C1627       C  0.11062229  0.17749444  0.30080433    -0.20900
C1628       C  0.11074233  0.18227071  0.27048728     0.24900
C1629       C  0.12474618  0.18936787  0.25882271    -0.18400
C1630       C  0.13803478  0.19225174  0.27746339    -0.08400
C1631       C  0.09633644  0.17934819  0.25122541    -0.18700
C1632       C  0.09247132  0.18908249  0.22805470    -0.23500
C1633       C  0.07958141  0.18565281  0.20560829     0.26900
C1634       C  0.08107798  0.19246248  0.17683150    -0.20300
C1635       C  0.06991708  0.18901114  0.15412508    -0.09900
C1636       C  0.05679304  0.17881971  0.15974763    -0.10400
C1637       C  0.05488507  0.17241898  0.18887522    -0.03400
C1638       C  0.06620435  0.17577681  0.21166791    -0.18500
H1639       H  0.12276834  0.17716371  0.34299570     0.10600
H1640       H  0.10003517  0.17182412  0.31020913     0.10700
H1641       H  0.12554048  0.19264522  0.23523339     0.10300
H1642       H  0.14848311  0.19810406  0.26791852     0.11400
H1643       H  0.08899543  0.16889296  0.25615434     0.11500
H1644       H  0.09981950  0.19965942  0.22399310     0.13400
H1645       H  0.09120266  0.20017119  0.17160642     0.10000
H1646       H  0.07172106  0.19417146  0.13195787     0.12100
H1647       H  0.04483958  0.16457668  0.19385662     0.08700
H1648       H  0.06442592  0.17064915  0.23382808     0.11400
C1649       C  0.40097033  0.18784087  0.71932093    -0.03200
C1650       C  0.41561563  0.18141830  0.70875553    -0.05800
C1651       C  0.42836985  0.17854550  0.72873762    -0.20900
C1652       C  0.42692282  0.18210524  0.75960514     0.24900
C1653       C  0.41213568  0.18788333  0.77043636    -0.18400
C1654       C  0.39938446  0.19070121  0.75056024    -0.08400
C1655       C  0.44086281  0.17914752  0.77996605    -0.18700
C1656       C  0.44304642  0.18712764  0.80626139    -0.23500
C1657       C  0.45631871  0.18397906  0.82817821     0.26900
C1658       C  0.45556856  0.19152022  0.85659519    -0.20300
C1659       C  0.46728242  0.18859411  0.87858508    -0.09900
C1660       C  0.48016378  0.17815680  0.87258304    -0.10400
C1661       C  0.48119552  0.17084864  0.84401518    -0.03400
C1662       C  0.46940270  0.17369283  0.82200356    -0.18500
H1663       H  0.41765760  0.17888495  0.68519767     0.10600
H1664       H  0.43956304  0.17383063  0.71991077     0.10700
H1665       H  0.41026042  0.19013882  0.79425014     0.10300
H1666       H  0.38826777  0.19551278  0.75953785     0.11400
H1667       H  0.44952254  0.17026733  0.77253471     0.11500
H1668       H  0.43449551  0.19641123  0.81252650     0.13400
H1669       H  0.44570905  0.19953409  0.86203828     0.10000
H1670       H  0.46616577  0.19441121  0.90042573     0.12100
H1671       H  0.49096867  0.16268639  0.83885774     0.08700
H1672       H  0.47071579  0.16775105  0.80042284     0.11400
C1673       C  0.34172560  0.18396290  0.69202945    -0.03200
C1674       C  0.33918984  0.16766938  0.69922018    -0.05800
C1675       C  0.32361223  0.16125216  0.69970167    -0.20900
C1676       C  0.31030786  0.17089633  0.69251869     0.24900
C1677       C  0.31279040  0.18724534  0.68605915    -0.18400
C1678       C  0.32830594  0.19367006  0.68580501    -0.08400
C1679       C  0.29390653  0.16384754  0.69266041    -0.18700
C1680       C  0.28234145  0.16881593  0.67344007    -0.23500
C1681       C  0.26546850  0.16295096  0.67395933     0.26900
C1682       C  0.25590490  0.16491853  0.64803345    -0.20300
C1683       C  0.23956333  0.16097747  0.64837275    -0.09900
C1684       C  0.23237349  0.15502231  0.67470054    -0.10400
C1685       C  0.24201740  0.15278908  0.70056544    -0.03400
C1686       C  0.25837578  0.15672478  0.70024235    -0.18500
H1687       H  0.34924297  0.15975873  0.70376315     0.10600
H1688       H  0.32197451  0.14864576  0.70502039     0.10700
H1689       H  0.30272868  0.19515747  0.68154264     0.10300
H1690       H  0.32969899  0.20629610  0.68094858     0.11400
H1691       H  0.29156779  0.15401406  0.70810223     0.11500
H1692       H  0.28540216  0.17752018  0.65612459     0.13400
H1693       H  0.26105591  0.16974008  0.62751951     0.10000
H1694       H  0.23259779  0.16268758  0.62799710     0.12100
H1695       H  0.23682006  0.14856762  0.72147487     0.08700
H1696       H  0.26521124  0.15547983  0.72095225     0.11400
C1697       C  0.30828166  0.16051921  0.34888305    -0.03200
C1698       C  0.30130990  0.16826581  0.37385779    -0.05800
C1699       C  0.28532063  0.17350244  0.37273961    -0.20900
C1700       C  0.27587148  0.17096212  0.34677834     0.24900
C1701       C  0.28283127  0.16326053  0.32169714    -0.18400
C1702       C  0.29884370  0.15811671  0.32274491    -0.08400
C1703       C  0.25908878  0.17714971  0.34612811    -0.18700
C1704       C  0.24724377  0.17046687  0.32933973    -0.23500
C1705       C  0.23043583  0.17665237  0.32904534     0.26900
C1706       C  0.21770395  0.16606541  0.32242711    -0.20300
C1707       C  0.20172830  0.17146745  0.32262276    -0.09900
C1708       C  0.19819157  0.18764123  0.32920803    -0.10400
C1709       C  0.21097547  0.19833189  0.33466469    -0.03400
C1710       C  0.22690345  0.19294383  0.33455316    -0.18500
H1711       H  0.30816670  0.17026476  0.39436142     0.10600
H1712       H  0.28028142  0.17951259  0.39229638     0.10700
H1713       H  0.27609618  0.16160026  0.30093036     0.10300
H1714       H  0.30394495  0.15268154  0.30268804     0.11400
H1715       H  0.25626814  0.18706577  0.36125972     0.11500
H1716       H  0.24968929  0.15955641  0.31656818     0.13400
H1717       H  0.22009938  0.15348109  0.31781826     0.10000
H1718       H  0.19214442  0.16288271  0.31868121     0.12100
H1719       H  0.20869741  0.21089921  0.33904088     0.08700
H1720       H  0.23639823  0.20161067  0.33854721     0.11400
C1721       C  0.35423115  0.15688562  0.41466862    -0.03200
C1722       C  0.37035790  0.15480700  0.42350352    -0.05800
C1723       C  0.37532396  0.15870622  0.45287572    -0.20900
C1724       C  0.36430817  0.16484269  0.47391323     0.24900
C1725       C  0.34807322  0.16650587  0.46525532    -0.18400
C1726       C  0.34313576  0.16268158  0.43584833    -0.08400
C1727       C  0.37000237  0.16900116  0.50486013    -0.18700
C1728       C  0.36281797  0.18029825  0.52205183    -0.23500
C1729       C  0.36782362  0.18438469  0.55344832     0.26900
C1730       C  0.36287852  0.19915637  0.56578022    -0.20300
C1731       C  0.36613662  0.20299247  0.59597407    -0.09900
C1732       C  0.37431509  0.19206129  0.61461274    -0.10400
C1733       C  0.37959240  0.17740029  0.60214269    -0.03400
C1734       C  0.37636448  0.17357405  0.57191231    -0.18500
H1735       H  0.37922285  0.15057601  0.40747014     0.10600
H1736       H  0.38785986  0.15720441  0.45902182     0.10700
H1737       H  0.33910746  0.17060049  0.48117575     0.10300
H1738       H  0.33060984  0.16415762  0.42971765     0.11400
H1739       H  0.38080587  0.16307965  0.51299169     0.11500
H1740       H  0.35298829  0.18724385  0.51250955     0.13400
H1741       H  0.35626542  0.20769225  0.55208494     0.10000
H1742       H  0.36210590  0.21446941  0.60477009     0.12100
H1743       H  0.38559850  0.16854561  0.61606375     0.08700
H1744       H  0.37999691  0.16188093  0.56359338     0.11400
C1745       C  0.35548410  0.12857311  0.31149543    -0.03200
C1746       C  0.36279024  0.11429392  0.32196492    -0.05800
C1747       C  0.36560193  0.10139091  0.30220356    -0.20900
C1748       C  0.36101428  0.10232174  0.27174318     0.24900
C1749       C  0.35450821  0.11680931  0.26091379    -0.18400
C1750       C  0.35170832  0.12967085  0.28053576    -0.08400
C1751       C  0.36308489  0.08807807  0.25169970    -0.18700
C1752       C  0.35309108  0.08514893  0.22826135    -0.23500
C1753       C  0.35515441  0.07187282  0.20607051     0.26900
C1754       C  0.34821783  0.07375883  0.17737082    -0.20300
C1755       C  0.35029978  0.06209151  0.15502086    -0.09900
C1756       C  0.35925685  0.04812343  0.16090655    -0.10400
C1757       C  0.36569345  0.04584285  0.19001015    -0.03400
C1758       C  0.36367520  0.05762993  0.21246142    -0.18500
H1759       H  0.36584827  0.11257578  0.34541656     0.10600
H1760       H  0.37084481  0.09042233  0.31098702     0.10700
H1761       H  0.35145461  0.11825469  0.23728321     0.10300
H1762       H  0.34612172  0.14043769  0.27162683     0.11400
H1763       H  0.37287789  0.07986965  0.25667805     0.11500
H1764       H  0.34316134  0.09334499  0.22412989     0.13400
H1765       H  0.34148447  0.08453310  0.17192997     0.10000
H1766       H  0.34514488  0.06419851  0.13286682     0.12100
H1767       H  0.37256332  0.03513156  0.19521927     0.08700
H1768       H  0.36877844  0.05553307  0.23461837     0.11400
C1769       C  0.30032485  0.37262110  0.66284254    -0.03200
C1770       C  0.28893558  0.38512943  0.66147763    -0.05800
C1771       C  0.27248178  0.38173675  0.65996028    -0.20900
C1772       C  0.26695804  0.36579458  0.65999746     0.24900
C1773       C  0.27831895  0.35325226  0.66010848    -0.18400
C1774       C  0.29477796  0.35664936  0.66150503    -0.08400
C1775       C  0.24931734  0.36281417  0.65988764    -0.18700
C1776       C  0.24259566  0.34924360  0.67060778    -0.23500
C1777       C  0.22495595  0.34650564  0.67193671     0.26900
C1778       C  0.21926303  0.33061588  0.67191225    -0.20300
C1779       C  0.20279453  0.32742628  0.67341459    -0.09900
C1780       C  0.19167427  0.34004225  0.67546945    -0.10400
C1781       C  0.19730889  0.35596810  0.67630797    -0.03400
C1782       C  0.21380938  0.35920001  0.67448941    -0.18500
H1783       H  0.29268005  0.39759832  0.66140494     0.10600
H1784       H  0.26401211  0.39163441  0.65930298     0.10700
H1785       H  0.27462565  0.34078854  0.65891156     0.10300
H1786       H  0.30303288  0.34665716  0.66198492     0.11400
H1787       H  0.24164607  0.37243697  0.65172237     0.11500
H1788       H  0.25021429  0.33958747  0.67876581     0.13400
H1789       H  0.22759134  0.32062216  0.67042072     0.10000
H1790       H  0.19876841  0.31507386  0.67326318     0.12100
H1791       H  0.18892550  0.36591177  0.67775286     0.08700
H1792       H  0.21774967  0.37159416  0.67554620     0.11400
C1793       C  0.35555995  0.49216487  0.83593763    -0.03200
C1794       C  0.33993946  0.48686709  0.82893547    -0.05800
C1795       C  0.33740242  0.47544060  0.80618199    -0.20900
C1796       C  0.35037385  0.46911400  0.78977073     0.24900
C1797       C  0.36594321  0.47506704  0.79562036    -0.18400
C1798       C  0.36848411  0.48651106  0.81847377    -0.08400
C1799       C  0.34728354  0.45515960  0.76945463    -0.18700
C1800       C  0.35750883  0.44976233  0.74815750    -0.23500
C1801       C  0.35424549  0.43472332  0.73095009     0.26900
C1802       C  0.35908380  0.43335105  0.70073394    -0.20300
C1803       C  0.35556557  0.41943339  0.68395071    -0.09900
C1804       C  0.34732045  0.40644192  0.69731163    -0.10400
C1805       C  0.34310125  0.40773215  0.72800538    -0.03400
C1806       C  0.34654475  0.42160643  0.74460918    -0.18500
H1807       H  0.32973240  0.49098552  0.84198041     0.10600
H1808       H  0.32529596  0.47106743  0.80217460     0.10700
H1809       H  0.37630053  0.47033167  0.78387314     0.10300
H1810       H  0.38067246  0.49032383  0.82346156     0.11400
H1811       H  0.33594023  0.44887595  0.77248981     0.11500
H1812       H  0.36818598  0.45661504  0.74252431     0.13400
H1813       H  0.36522675  0.44324766  0.68985805     0.10000
H1814       H  0.35908090  0.41925450  0.66053892     0.12100
H1815       H  0.33685479  0.39797010  0.73910414     0.08700
H1816       H  0.34318201  0.42201462  0.76820948     0.11400
C1817       C  0.34734975  0.34567897  0.69049494    -0.03200
C1818       C  0.36366675  0.34188715  0.69466097    -0.05800
C1819       C  0.36842207  0.32587293  0.69875897    -0.20900
C1820       C  0.35695171  0.31345384  0.69856185     0.24900
C1821       C  0.34055406  0.31747552  0.69646702    -0.18400
C1822       C  0.33585275  0.33341124  0.69226212    -0.08400
C1823       C  0.36237518  0.29644362  0.69983511    -0.18700
C1824       C  0.35400912  0.28442527  0.68650823    -0.23500
C1825       C  0.35904521  0.26728765  0.68625679     0.26900
C1826       C  0.34736615  0.25547567  0.68032099    -0.20300
C1827       C  0.35149689  0.23918407  0.67941468    -0.09900
C1828       C  0.36744915  0.23429763  0.68428182    -0.10400
C1829       C  0.37923423  0.24620138  0.68944553    -0.03400
C1830       C  0.37510010  0.26248842  0.69048390    -0.18500
H1831       H  0.37276480  0.35118873  0.69335907     0.10600
H1832       H  0.38111278  0.32310945  0.70082204     0.10700
H1833       H  0.33130349  0.30834954  0.69781035     0.10300
H1834       H  0.32320094  0.33612909  0.69017285     0.11400
H1835       H  0.37377142  0.29399569  0.71091107     0.11500
H1836       H  0.34277564  0.28716688  0.67505393     0.13400
H1837       H  0.33492670  0.25885952  0.67665471     0.10000
H1838       H  0.34208880  0.23049041  0.67540804     0.12100
H1839       H  0.39176551  0.24300806  0.69225478     0.08700
H1840       H  0.38458855  0.27121292  0.69393245     0.11400
C1841       C  0.38369495  0.29755826  0.34462559    -0.03200
C1842       C  0.39637478  0.28721498  0.33625871    -0.05800
C1843       C  0.39401995  0.27057596  0.33445999    -0.20900
C1844       C  0.37896688  0.26385200  0.34087387     0.24900
C1845       C  0.36660332  0.27400153  0.35117761    -0.18400
C1846       C  0.36897490  0.29062322  0.35310633    -0.08400
C1847       C  0.37666926  0.24620947  0.33744340    -0.18700
C1848       C  0.36227814  0.23955316  0.33094909    -0.23500
C1849       C  0.35934660  0.22192897  0.32997045     0.26900
C1850       C  0.34376107  0.21638354  0.33598651    -0.20300
C1851       C  0.34059120  0.19994159  0.33788053    -0.09900
C1852       C  0.35291272  0.18864494  0.33346025    -0.10400
C1853       C  0.36832392  0.19408765  0.32556981    -0.03400
C1854       C  0.37154262  0.21061483  0.32387043    -0.18500
H1855       H  0.40813910  0.29191124  0.33079926     0.10600
H1856       H  0.40389286  0.26296644  0.32733914     0.10700
H1857       H  0.35506960  0.26917051  0.35784511     0.10300
H1858       H  0.35903676  0.29792826  0.36049437     0.11400
H1859       H  0.38717914  0.23862168  0.34026441     0.11500
H1860       H  0.35189519  0.24730182  0.32785225     0.13400
H1861       H  0.33408965  0.22482005  0.34023295     0.10000
H1862       H  0.32848963  0.19607219  0.34319136     0.12100
H1863       H  0.37800517  0.18560684  0.32184556     0.08700
H1864       H  0.38357243  0.21443320  0.31805272     0.11400
C1865       C  0.38490119  0.34472323  0.40698229    -0.03200
C1866       C  0.38594581  0.36108092  0.41487925    -0.05800
C1867       C  0.38182120  0.36624886  0.44395233    -0.20900
C1868       C  0.37655875  0.35522681  0.46578818     0.24900
C1869       C  0.37631972  0.33872260  0.45820554    -0.18400
C1870       C  0.38034931  0.33358991  0.42907719    -0.08400
C1871       C  0.37126952  0.36156773  0.49575444    -0.18700
C1872       C  0.36338939  0.35277625  0.51653650    -0.23500
C1873       C  0.35791791  0.35924960  0.54611824     0.26900
C1874       C  0.35567953  0.34842182  0.56996009    -0.20300
C1875       C  0.35032944  0.35379879  0.59808351    -0.09900
C1876       C  0.34690405  0.37014474  0.60296908    -0.10400
C1877       C  0.34895807  0.38102911  0.57907820    -0.03400
C1878       C  0.35435514  0.37563846  0.55084398    -0.18500
H1879       H  0.38922766  0.36999082  0.39821545     0.10600
H1880       H  0.38228769  0.37899638  0.44911269     0.10700
H1881       H  0.37295679  0.32962834  0.47433297     0.10300
H1882       H  0.37971218  0.32087779  0.42370690     0.11400
H1883       H  0.37382400  0.37412642  0.50058895     0.11500
H1884       H  0.36097100  0.34015911  0.51240050     0.13400
H1885       H  0.35827958  0.33574544  0.56692325     0.10000
H1886       H  0.34921871  0.34514834  0.61618699     0.12100
H1887       H  0.34620205  0.39366372  0.58212605     0.08700
H1888       H  0.35541269  0.38427690  0.53274518     0.11400
C1889       C  0.47985392  0.35936809  0.13663598    -0.03200
C1890       C  0.46616527  0.34988536  0.13103453    -0.05800
C1891       C  0.45515834  0.34679704  0.15401054    -0.20900
C1892       C  0.45743799  0.35322724  0.18307197     0.24900
C1893       C  0.47143995  0.36229095  0.18904575    -0.18400
C1894       C  0.48254983  0.36531405  0.16599271    -0.08400
C1895       C  0.44498367  0.34990874  0.20627875    -0.18700
C1896       C  0.44265190  0.35896440  0.23123571    -0.23500
C1897       C  0.42989215  0.35541356  0.25377750     0.26900
C1898       C  0.43206601  0.36045431  0.28380205    -0.20300
C1899       C  0.42081824  0.35651552  0.30605445    -0.09900
C1900       C  0.40693315  0.34753462  0.29869505    -0.10400
C1901       C  0.40444386  0.34322755  0.26819902    -0.03400
C1902       C  0.41568545  0.34715337  0.24603442    -0.18500
H1903       H  0.46381355  0.34500982  0.10871091     0.10600
H1904       H  0.44461327  0.33960738  0.14886005     0.10700
H1905       H  0.47393727  0.36699441  0.21139336     0.10300
H1906       H  0.49309066  0.37252351  0.17100963     0.11400
H1907       H  0.43717268  0.33967835  0.20202752     0.11500
H1908       H  0.45051887  0.36909488  0.23590895     0.13400
H1909       H  0.44280694  0.36702355  0.29029648     0.10000
H1910       H  0.42354425  0.36010471  0.32893305     0.12100
H1911       H  0.39389316  0.33637998  0.26163074     0.08700
H1912       H  0.41317391  0.34362930  0.22293730     0.11400
C1913       C  0.24111365  0.37595894  0.35251793    -0.03200
C1914       C  0.25247497  0.38847019  0.35044137    -0.05800
C1915       C  0.26895725  0.38510083  0.34950863    -0.20900
C1916       C  0.27452653  0.36916501  0.35050775     0.24900
C1917       C  0.26320351  0.35670954  0.35403972    -0.18400
C1918       C  0.24673898  0.36010182  0.35506864    -0.08400
C1919       C  0.29216802  0.36616410  0.34823727    -0.18700
C1920       C  0.29863983  0.35172352  0.34139163    -0.23500
C1921       C  0.31623746  0.34870375  0.33926304     0.26900
C1922       C  0.32184380  0.33292057  0.34315846    -0.20300
C1923       C  0.33825154  0.32944324  0.34135909    -0.09900
C1924       C  0.34942992  0.34162300  0.33518294    -0.10400
C1925       C  0.34384965  0.35738286  0.33061466    -0.03400
C1926       C  0.32742108  0.36091371  0.33263422    -0.18500
H1927       H  0.24865179  0.40090211  0.34932343     0.10600
H1928       H  0.27737395  0.39498472  0.34743986     0.10700
H1929       H  0.26686756  0.34429612  0.35617989     0.10300
H1930       H  0.23849045  0.35019447  0.35709517     0.11400
H1931       H  0.30004574  0.37638514  0.35207818     0.11500
H1932       H  0.29087162  0.34143194  0.33762479     0.13400
H1933       H  0.31349873  0.32324756  0.34792686     0.10000
H1934       H  0.34213894  0.31718634  0.34452204     0.12100
H1935       H  0.35222856  0.36704619  0.32607037     0.08700
H1936       H  0.32358076  0.37314901  0.32860415     0.11400
loop_ 
_geom_bond_atom_site_label_1 
_geom_bond_atom_site_label_2 
_geom_bond_distance 
_geom_bond_site_symmetry_2 
_ccdc_geom_bond_type 
C1            C2   1.540       .  S
C1            C7   1.533       .  S
C1            C5   1.545       .  S
C1         C1900   1.529       .  S
C2            H9   1.086       .  S
C2            C3   1.368       .  D
C3            C4   1.538       .  S
C3         C1924   1.485       .  S
C4            C8   1.543       .  S
C4            C6   1.539       .  S
C4           H10   1.108       .  S
C5           H11   1.082       .  S
C5            C6   1.368       .  D
C6         C1865   1.485       .  S
C7           H12   1.085       .  S
C7            C8   1.366       .  D
C8         C1841   1.496       .  S
C13          C14   1.541       .  S
C13          C19   1.536       .  S
C13          C17   1.546       .  S
C13        C1804   1.527       .  S
C14          H21   1.086       .  S
C14          C15   1.364       .  D
C15          C16   1.535       .  S
C15        C1817   1.479       .  S
C16          C20   1.540       .  S
C16          C18   1.538       .  S
C16          H22   1.108       .  S
C17          H23   1.082       .  S
C17          C18   1.369       .  D
C18        C1876   1.485       .  S
C19          H24   1.085       .  S
C19          C20   1.366       .  D
C20        C1769   1.494       .  S
C25          C26   1.545       .  S
C25          C31   1.538       .  S
C25          C29   1.542       .  S
C25        C1745   1.528       .  S
C26          H33   1.086       .  S
C26          C27   1.369       .  D
C27          C28   1.536       .  S
C27        C1852   1.482       .  S
C28          C32   1.537       .  S
C28          C30   1.538       .  S
C28          H34   1.109       .  S
C29          H35   1.082       .  S
C29          C30   1.366       .  D
C30        C1721   1.483       .  S
C31          H36   1.086       .  S
C31          C32   1.365       .  D
C32        C1697   1.490       .  S
C37          C38   1.539       .  S
C37          C43   1.531       .  S
C37          C41   1.544       .  S
C37        C1649   1.526       .  S
C38          H45   1.086       .  S
C38          C39   1.369       .  D
C39          C40   1.543       .  S
C39        C1673   1.490       .  S
C40          C44   1.543       .  S
C40          C42   1.540       .  S
C40          H46   1.107       .  S
C41          H47   1.081       .  S
C41          C42   1.368       .  D
C42        C1732   1.487       .  S
C43          H48   1.086       .  S
C43          C44   1.363       .  D
C44        C1828   1.491       .  S
C49          C50   1.546       .  S
C49          C55   1.535       .  S
C49          C53   1.544       .  S
C49        C1625   1.530       .  S
C50          H57   1.086       .  S
C50          C51   1.370       .  D
C51          C52   1.537       .  S
C51        C1708   1.489       .  S
C52          C56   1.546       .  S
C52          C54   1.539       .  S
C52          H58   1.105       .  S
C53          H59   1.081       .  S
C53          C54   1.366       .  D
C54        C1601   1.488       .  S
C55          H60   1.085       .  S
C55          C56   1.365       .  D
C56        C1577   1.502       .  S
C61          C62   1.544       .  S
C61          C67   1.537       .  S
C61          C65   1.544       .  S
C61        C1540   1.526       .  S
C62          H69   1.086       .  S
C62          C63   1.368       .  D
C63          C64   1.538       .  S
C63        C1564   1.484       .  S
C64          C68   1.538       .  S
C64          C66   1.538       .  S
C64          H70   1.109       .  S
C65          H71   1.081       .  S
C65          C66   1.367       .  D
C66        C1612   1.484       .  S
C67          H72   1.086       .  S
C67          C68   1.363       .  D
C68        C1684   1.489       .  S
C73          C74   1.543       .  S
C73          C79   1.531       .  S
C73          C77   1.545       .  S
C73        C1505   1.529       .  S
C74          H81   1.086       .  S
C74          C75   1.367       .  D
C75          C76   1.538       .  S
C75        C1588   1.488       .  S
C76          C80   1.545       .  S
C76          C78   1.541       .  S
C76          H82   1.109       .  S
C77          H83   1.083       .  S
C77          C78   1.370       .  D
C78        C1492   1.486       .  S
C79          H84   1.086       .  S
C79          C80   1.364       .  D
C80        C1913   1.493       .  S
C85          C86   1.549       .  S
C85          C91   1.536       .  S
C85          C89   1.537       .  S
C85        C1468   1.531       .  S
C86          H93   1.082       .  S
C86          C87   1.368       .  D
C87          C88   1.537       .  S
C87        C1780   1.481       .  S
C88          C92   1.542       .  S
C88          C90   1.538       .  S
C88          H94   1.109       .  S
C89          H95   1.086       .  S
C89          C90   1.366       .  D
C90        C1481   1.480       .  S
C91          H96   1.085       .  S
C91          C92   1.367       .  D
C92        C1553   1.498       .  S
C97          C98   1.534       .  S
C97         C103   1.537       .  S
C97         C101   1.548       .  S
C97        C1409   1.528       .  S
C98         H105   1.086       .  S
C98          C99   1.365       .  D
C99         C100   1.540       .  S
C99        C1385   1.482       .  S
C100        C104   1.542       .  S
C100        C102   1.536       .  S
C100        H106   1.107       .  S
C101        H107   1.080       .  S
C101        C102   1.368       .  D
C102       C1444   1.487       .  S
C103        H108   1.085       .  S
C103        C104   1.367       .  D
C104       C1361   1.494       .  S
C109        C110   1.545       .  S
C109        C115   1.535       .  S
C109        C113   1.541       .  S
C109       C1313   1.525       .  S
C110        H117   1.082       .  S
C110        C111   1.368       .  D
C111        C112   1.540       .  S
C111       C1396   1.486       .  S
C112        C116   1.543       .  S
C112        C114   1.537       .  S
C112        H118   1.106       .  S
C113        H119   1.086       .  S
C113        C114   1.363       .  D
C114       C1348   1.483       .  S
C115        H120   1.085       .  S
C115        C116   1.368       .  D
C116       C1289   1.498       .  S
C121        C122   1.544       .  S
C121        C127   1.539       .  S
C121        C125   1.542       .  S
C121       C1241   1.529       .  S
C122        H129   1.081       .  S
C122        C123   1.366       .  D
C123        C124   1.536       .  S
C123       C1217   1.483       .  S
C124        C128   1.540       .  S
C124        C126   1.532       .  S
C124        H130   1.107       .  S
C125        H131   1.086       .  S
C125        C126   1.366       .  D
C126       C1265   1.475       .  S
C127        H132   1.085       .  S
C127        C128   1.368       .  D
C128       C1433   1.497       .  S
C133        C134   1.543       .  S
C133        C139   1.530       .  S
C133        C137   1.542       .  S
C133       C1193   1.525       .  S
C134        H141   1.082       .  S
C134        C135   1.367       .  D
C135        C136   1.536       .  S
C135       C1228   1.476       .  S
C136        C140   1.538       .  S
C136        C138   1.541       .  S
C136        H142   1.108       .  S
C137        H143   1.085       .  S
C137        C138   1.372       .  D
C138       C1300   1.493       .  S
C139        H144   1.087       .  S
C139        C140   1.360       .  D
C140       C1169   1.482       .  S
C145        C146   1.545       .  S
C145        C151   1.532       .  S
C145        C149   1.538       .  S
C145       C1121   1.527       .  S
C146        H153   1.080       .  S
C146        C147   1.371       .  D
C147        C148   1.542       .  S
C147       C1108   1.491       .  S
C148        C152   1.540       .  S
C148        C150   1.536       .  S
C148        H154   1.107       .  S
C149        H155   1.086       .  S
C149        C150   1.365       .  D
C150       C1145   1.479       .  S
C151        H156   1.086       .  S
C151        C152   1.363       .  D
C152       C1276   1.490       .  S
C157        C158   1.541       .  S
C157        C163   1.538       .  S
C157        C161   1.551       .  S
C157       C1073   1.529       .  S
C158        H165   1.086       .  S
C158        C159   1.369       .  D
C159        C160   1.537       .  S
C159       C1097   1.487       .  S
C160        C164   1.536       .  S
C160        C162   1.529       .  S
C160        H166   1.107       .  S
C161        H167   1.082       .  S
C161        C162   1.365       .  D
C162       C1180   1.471       .  S
C163        H168   1.085       .  S
C163        C164   1.365       .  D
C164       C1049   1.491       .  S
C169        C170   1.547       .  S
C169        C175   1.535       .  S
C169        C173   1.545       .  S
C169       C1036   1.528       .  S
C170        H177   1.081       .  S
C170        C171   1.366       .  D
C171        C172   1.534       .  S
C171       C1012   1.482       .  S
C172        C176   1.539       .  S
C172        C174   1.538       .  S
C172        H178   1.108       .  S
C173        H179   1.086       .  S
C173        C174   1.370       .  D
C174       C1372   1.491       .  S
C175        H180   1.086       .  S
C175        C176   1.362       .  D
C176       C1156   1.485       .  S
C181        C182   1.547       .  S
C181        C187   1.537       .  S
C181        C185   1.541       .  S
C181        C977   1.529       .  S
C182        H189   1.081       .  S
C182        C183   1.372       .  D
C183        C184   1.539       .  S
C183       C1001   1.491       .  S
C184        C188   1.533       .  S
C184        C186   1.534       .  S
C184        H190   1.109       .  S
C185        H191   1.086       .  S
C185        C186   1.366       .  D
C186       C1060   1.478       .  S
C187        H192   1.087       .  S
C187        C188   1.362       .  D
C188       C1337   1.481       .  S
O193        C196   1.265       .  A
O193       Cd198   2.487       .  S
C194        O203   1.266       .  A
C194        O199   1.266       .  A
C194        C905   1.477       .  S
O195        C201   1.266       .  A
O195       Cd198   2.475       .  S
C196        O204   1.264       .  A
C196       C1324   1.477       .  S
C197        O202   1.266       .  A
C197        O200   1.265       .  A
C197        C940   1.483       .  S
Cd198       O205   2.474       .  S
Cd198       O204   2.436       .  S
Cd198       O203   2.453       .  S
Cd198       O199   2.461       .  S
Cd198       O202   2.482       .  S
Cd198       O200   2.476       .  S
C201        O205   1.265       .  A
C201        C953   1.481       .  S
O206        C209   1.265       .  A
O206       Cd211   2.490       .  S
C207        O216   1.265       .  A
C207        O212   1.266   1_655  A
C207       C1420   1.478       .  S
O208        C214   1.265       .  A
O208       Cd211   2.488       .  S
C209        O217   1.265       .  A
C209        C868   1.481       .  S
C210        O215   1.264       .  A
C210        O213   1.266   1_655  A
C210        C964   1.483       .  S
Cd211       O218   2.488       .  S
Cd211       O217   2.458       .  S
Cd211       O216   2.463   1_455  S
Cd211       O212   2.465       .  S
Cd211       O215   2.475   1_455  S
Cd211       O213   2.487       .  S
C214        O218   1.265       .  A
C214        C881   1.485       .  S
O219        C222   1.264   1_545  A
O219       Cd224   2.455       .  S
C220        O229   1.265       .  A
C220        O225   1.264       .  A
C220        C785   1.484       .  S
O221        C227   1.263       .  A
O221       Cd224   2.477   1_565  S
C222        O230   1.266   1_565  A
C222       C1025   1.477       .  S
C223        O228   1.267       .  A
C223        O226   1.267       .  A
C223        C809   1.486       .  S
Cd224       O231   2.474       .  S
Cd224       O230   2.468       .  S
Cd224       O229   2.489       .  S
Cd224       O225   2.484       .  S
Cd224       O228   2.481       .  S
Cd224       O226   2.484       .  S
C227        O231   1.266   1_565  A
C227        C833   1.481       .  S
O232        C235   1.266   1_455  A
O232       Cd237   2.493       .  S
C233        O242   1.265       .  A
C233        O238   1.265       .  A
C233        C761   1.486       .  S
O234        C240   1.264       .  A
O234       Cd237   2.477   1_655  S
C235        O243   1.264       .  A
C235        C988   1.481       .  S
C236        O241   1.267       .  A
C236        O239   1.267       .  A
C236        C892   1.484       .  S
Cd237       O244   2.489   1_455  S
Cd237       O243   2.460   1_455  S
Cd237       O242   2.485       .  S
Cd237       O238   2.495       .  S
Cd237       O241   2.475       .  S
Cd237       O239   2.475       .  S
C240        O244   1.266       .  A
C240        C844   1.483       .  S
O245        C248   1.267       .  A
O245       Cd250   2.498       .  S
C246        O255   1.265       .  A
C246        O251   1.267       .  A
C246        C689   1.483       .  S
O247        C253   1.267       .  A
O247       Cd250   2.476       .  S
C248        O256   1.263       .  A
C248       C1204   1.477       .  S
C249        O254   1.265       .  A
C249        O252   1.267       .  A
C249        C713   1.483       .  S
Cd250       O257   2.458       .  S
Cd250       O256   2.431       .  S
Cd250       O255   2.458       .  S
Cd250       O251   2.490       .  S
Cd250       O254   2.464       .  S
Cd250       O252   2.494       .  S
C253        O257   1.264       .  A
C253        C737   1.479       .  S
O258        C261   1.267       .  A
O258       Cd263   2.491       .  S
C259        O268   1.264       .  A
C259        O264   1.268       .  A
C259       C1252   1.478       .  S
O260        C266   1.267       .  A
O260       Cd263   2.476       .  S
C261        O269   1.265       .  A
C261        C665   1.482       .  S
C262        O267   1.264       .  A
C262        O265   1.267       .  A
C262        C748   1.482       .  S
Cd263       O270   2.484       .  S
Cd263       O269   2.455       .  S
Cd263       O268   2.443       .  S
Cd263       O264   2.482       .  S
Cd263       O267   2.463       .  S
Cd263       O265   2.486       .  S
C266        O270   1.266       .  A
C266        C929   1.485       .  S
O271        C274   1.267       .  A
O271       Cd276   2.491       .  S
C272        O281   1.266       .  A
C272        O277   1.267       .  A
C272        C628   1.480       .  S
O273        C279   1.267       .  A
O273       Cd276   2.494       .  S
C274        O282   1.264       .  A
C274       C1132   1.477       .  S
C275        O280   1.267       .  A
C275        O278   1.267       .  A
C275        C724   1.484       .  S
Cd276       O283   2.457       .  S
Cd276       O282   2.426       .  S
Cd276       O281   2.463       .  S
Cd276       O277   2.473       .  S
Cd276       O280   2.475       .  S
Cd276       O278   2.478       .  S
C279        O283   1.263       .  A
C279        C641   1.482       .  S
O284        C287   1.266   1_545  A
O284       Cd289   2.470       .  S
C285        O294   1.263       .  A
C285        O290   1.266       .  A
C285        C593   1.483       .  S
O286        C292   1.264       .  A
O286       Cd289   2.478   1_565  S
C287        O295   1.267   1_565  A
C287       C1084   1.484       .  S
C288        O293   1.265       .  A
C288        O291   1.266       .  A
C288        C820   1.486       .  S
Cd289       O296   2.487       .  S
Cd289       O295   2.485       .  S
Cd289       O294   2.457       .  S
Cd289       O290   2.511       .  S
Cd289       O293   2.488       .  S
Cd289       O291   2.501       .  S
C292        O296   1.265   1_565  A
C292        C652   1.483       .  S
O297        C300   1.267       .  A
O297       Cd302   2.477       .  S
C298        O307   1.263       .  A
C298        O303   1.268       .  A
C298       C1889   1.479       .  S
O299        C305   1.266       .  A
O299       Cd302   2.480       .  S
C300        O308   1.266       .  A
C300        C676   1.482       .  S
C301        O306   1.267       .  A
C301        O304   1.266       .  A
C301        C545   1.480       .  S
Cd302       O309   2.460       .  S
Cd302       O308   2.464       .  S
Cd302       O307   2.435       .  S
Cd302       O303   2.494       .  S
Cd302       O306   2.475       .  S
Cd302       O304   2.454       .  S
C305        O309   1.264       .  A
C305        C580   1.480       .  S
O310        C313   1.265       .  A
O310       Cd315   2.493       .  S
C311        O320   1.266       .  A
C311        O316   1.266       .  A
C311       C1793   1.480       .  S
O312        C318   1.263       .  A
O312       Cd315   2.476       .  S
C313        O321   1.263       .  A
C313        C700   1.482       .  S
C314        O319   1.267       .  A
C314        O317   1.267       .  A
C314        C521   1.484       .  S
Cd315       O322   2.477       .  S
Cd315       O321   2.465       .  S
Cd315       O320   2.462       .  S
Cd315       O316   2.475       .  S
Cd315       O319   2.478       .  S
Cd315       O317   2.481       .  S
C318        O322   1.264       .  A
C318        C569   1.480       .  S
O323        C326   1.269       .  A
O323       Cd328   2.481       .  S
C324        O333   1.266       .  A
C324        O329   1.268       .  A
C324        C604   1.481       .  S
O325        C331   1.269       .  A
O325       Cd328   2.471       .  S
C326        O334   1.264       .  A
C326       C1660   1.477       .  S
C327        O332   1.269       .  A
C327        O330   1.263       .  A
C327        C508   1.478       .  S
Cd328       O335   2.448       .  S
Cd328       O334   2.435       .  S
Cd328       O333   2.452       .  S
Cd328       O329   2.477       .  S
Cd328       O332   2.490       .  S
Cd328       O330   2.426       .  S
C331        O335   1.266       .  A
C331        C556   1.480       .  S
O336        C339   1.269       .  A
O336       Cd341   2.489       .  S
C337        O346   1.266       .  A
C337        O342   1.268       .  A
C337        C617   1.480       .  S
O338        C344   1.269       .  A
O338       Cd341   2.473       .  S
C339        O347   1.265       .  A
C339       C1756   1.479       .  S
C340        O345   1.270       .  A
C340        O343   1.263       .  A
C340        C497   1.481       .  S
Cd341       O348   2.462       .  S
Cd341       O347   2.428       .  S
Cd341       O346   2.453   1_545  S
Cd341       O342   2.471   1_545  S
Cd341       O345   2.510       .  S
Cd341       O343   2.424       .  S
C344        O348   1.266       .  A
C344        C473   1.482       .  S
O349        C352   1.265   1_455  A
O349       Cd354   2.446       .  S
C350        O359   1.263       .  A
C350        O355   1.268       .  A
C350       C1636   1.480       .  S
O351        C357   1.264       .  A
O351       Cd354   2.464       .  S
C352        O360   1.269   1_655  A
C352        C796   1.484       .  S
C353        O358   1.266       .  A
C353        O356   1.267       .  A
C353        C425   1.481       .  S
Cd354       O361   2.475       .  S
Cd354       O360   2.498       .  S
Cd354       O359   2.432       .  S
Cd354       O355   2.504       .  S
Cd354       O358   2.463       .  S
Cd354       O356   2.490       .  S
C357        O361   1.267       .  A
C357        C460   1.480       .  S
O362        C365   1.267       .  A
O362       Cd367   2.500   1_565  S
C363        O372   1.264       .  A
C363        O368   1.269       .  A
C363       C1529   1.478       .  S
O364        C370   1.267       .  A
O364       Cd367   2.481       .  S
C365        O373   1.265       .  A
C365        C772   1.485       .  S
C366        O371   1.267       .  A
C366        O369   1.266       .  A
C366        C484   1.481       .  S
Cd367       O374   2.441       .  S
Cd367       O373   2.463   1_545  S
Cd367       O372   2.430       .  S
Cd367       O368   2.492       .  S
Cd367       O371   2.480       .  S
Cd367       O369   2.458       .  S
C370        O374   1.264       .  A
C370        C449   1.478       .  S
O375        C378   1.266       .  A
O375       Cd380   2.498       .  S
C376        O385   1.265       .  A
C376        O381   1.268       .  A
C376       C1516   1.482       .  S
O377        C383   1.265       .  A
O377       Cd380   2.480       .  S
C378        O386   1.265       .  A
C378        C857   1.484       .  S
C379        O384   1.266       .  A
C379        O382   1.267       .  A
C379        C532   1.483       .  S
Cd380       O387   2.462       .  S
Cd380       O386   2.476       .  S
Cd380       O385   2.449       .  S
Cd380       O381   2.496       .  S
Cd380       O384   2.468       .  S
Cd380       O382   2.481       .  S
C383        O387   1.264       .  A
C383        C401   1.479       .  S
O388        C391   1.265       .  A
O388       Cd393   2.473   1_655  S
C389        O398   1.264       .  A
C389        O394   1.266       .  A
C389       C1457   1.480       .  S
O390        C396   1.267       .  A
O390       Cd393   2.479       .  S
C391        O399   1.265       .  A
C391        C916   1.480       .  S
C392        O397   1.264       .  A
C392        O395   1.265       .  A
C392        C436   1.480       .  S
Cd393       O400   2.439       .  S
Cd393       O399   2.469   1_455  S
Cd393       O398   2.448       .  S
Cd393       O394   2.494       .  S
Cd393       O397   2.463       .  S
Cd393       O395   2.478       .  S
C396        O400   1.265       .  A
C396        C412   1.477       .  S
C401        C402   1.404       .  A
C401        C406   1.405       .  A
C402        C403   1.398   1_554  A
C402        H415   1.083   1_554  S
C403        C404   1.404   1_556  A
C403        H416   1.084       .  S
C404        C407   1.483       .  S
C404        C405   1.406       .  A
C405        C406   1.398       .  A
C405        H417   1.082       .  S
C406        H418   1.083       .  S
C407        H419   1.086   1_554  S
C407        C408   1.348       .  D
C408        H420   1.085       .  S
C408        C409   1.485       .  S
C409        C410   1.405       .  A
C409        C414   1.406   1_554  A
C410        C411   1.401       .  A
C410        H421   1.083       .  S
C411        C412   1.405   1_554  A
C411        H422   1.083       .  S
C412        C413   1.404       .  A
C413        C414   1.394       .  A
C413        H423   1.083       .  S
C414        H424   1.082       .  S
C425        C426   1.404       .  A
C425        C430   1.406       .  A
C426        C427   1.397       .  A
C426        H439   1.083       .  S
C427        C428   1.402       .  A
C427        H440   1.083       .  S
C428        C431   1.485       .  S
C428        C429   1.408       .  A
C429        C430   1.404       .  A
C429        H441   1.082   1_455  S
C430        H442   1.083   1_455  S
C431        H443   1.087       .  S
C431        C432   1.346   1_554  D
C432        H444   1.086   1_455  S
C432        C433   1.487       .  S
C433        C434   1.404   1_455  A
C433        C438   1.407   1_556  A
C434        C435   1.401   1_655  A
C434        H445   1.083       .  S
C435        C436   1.406       .  A
C435        H446   1.083   1_455  S
C436        C437   1.405       .  A
C437        C438   1.398   1_556  A
C437        H447   1.083   1_556  S
C438        H448   1.082       .  S
C449        C450   1.405   1_556  A
C449        C454   1.404       .  A
C450        C451   1.400       .  A
C450        H463   1.083       .  S
C451        C452   1.405       .  A
C451        H464   1.083       .  S
C452        C455   1.487       .  S
C452        C453   1.407   1_554  A
C453        C454   1.395       .  A
C453        H465   1.082       .  S
C454        H466   1.083       .  S
C455        H467   1.085       .  S
C455        C456   1.348       .  D
C456        H468   1.085   1_554  S
C456        C457   1.486       .  S
C457        C458   1.404       .  A
C457        C462   1.408       .  A
C458        C459   1.397       .  A
C458        H469   1.083   1_554  S
C459        C460   1.403       .  A
C459        H470   1.083       .  S
C460        C461   1.406       .  A
C461        C462   1.400       .  A
C461        H471   1.083       .  S
C462        H472   1.081       .  S
C473        C474   1.406   1_545  A
C473        C478   1.403       .  A
C474        C475   1.400       .  A
C474        H487   1.083       .  S
C475        C476   1.405   1_565  A
C475        H488   1.083       .  S
C476        C479   1.491       .  S
C476        C477   1.409       .  A
C477        C478   1.398       .  A
C477        H489   1.080   1_554  S
C478        H490   1.083       .  S
C479        H491   1.085   1_545  S
C479        C480   1.348   1_554  D
C480        H492   1.084       .  S
C480        C481   1.489       .  S
C481        C482   1.404       .  A
C481        C486   1.409   1_556  A
C482        C483   1.397       .  A
C482        H493   1.083   1_545  S
C483        C484   1.404       .  A
C483        H494   1.083       .  S
C484        C485   1.405   1_556  A
C485        C486   1.401       .  A
C485        H495   1.083       .  S
C486        H496   1.081       .  S
C497        C498   1.405       .  A
C497        C502   1.405       .  A
C498        C499   1.394       .  A
C498        H511   1.083       .  S
C499        C500   1.401       .  A
C499        H512   1.084       .  S
C500        C503   1.489       .  S
C500        C501   1.411       .  A
C501        C502   1.404       .  A
C501        H513   1.081   1_554  S
C502        H514   1.083       .  S
C503        H515   1.085       .  S
C503        C504   1.345   1_554  D
C504        H516   1.084       .  S
C504        C505   1.488       .  S
C505        C506   1.402       .  A
C505        C510   1.411   1_556  A
C506        C507   1.395       .  A
C506        H517   1.083       .  S
C507        C508   1.405       .  A
C507        H518   1.083       .  S
C508        C509   1.403   1_556  A
C509        C510   1.401       .  A
C509        H519   1.083       .  S
C510        H520   1.081       .  S
C521        C522   1.405       .  A
C521        C526   1.406       .  A
C522        C523   1.400   1_556  A
C522        H535   1.083   1_556  S
C523        C524   1.405   1_554  A
C523        H536   1.083       .  S
C524        C527   1.494   1_556  S
C524        C525   1.410       .  A
C525        C526   1.402       .  A
C525        H537   1.081       .  S
C526        H538   1.083       .  S
C527        H539   1.085       .  S
C527        C528   1.350   1_554  D
C528        H540   1.084       .  S
C528        C529   1.492   1_556  S
C529        C530   1.404   1_554  A
C529        C534   1.409       .  A
C530        C531   1.399   1_556  A
C530        H541   1.083       .  S
C531        C532   1.405       .  A
C531        H542   1.083   1_554  S
C532        C533   1.405       .  A
C533        C534   1.401       .  A
C533        H543   1.083       .  S
C534        H544   1.081       .  S
C545        C546   1.405   1_554  A
C545        C550   1.405       .  A
C546        C547   1.399       .  A
C546        H559   1.083       .  S
C547        C548   1.404   1_556  A
C547        H560   1.083       .  S
C548        C551   1.486   1_554  S
C548        C549   1.407       .  A
C549        C550   1.398       .  A
C549        H561   1.082       .  S
C550        H562   1.083       .  S
C551        H563   1.086       .  S
C551        C552   1.348   1_556  D
C552        H564   1.086       .  S
C552        C553   1.485       .  S
C553        C554   1.404       .  A
C553        C558   1.406   1_554  A
C554        C555   1.399       .  A
C554        H565   1.083       .  S
C555        C556   1.404   1_554  A
C555        H566   1.083       .  S
C556        C557   1.406       .  A
C557        C558   1.398       .  A
C557        H567   1.083       .  S
C558        H568   1.082       .  S
C569        C570   1.404       .  A
C569        C574   1.405       .  A
C570        C571   1.398       .  A
C570        H583   1.083       .  S
C571        C572   1.404       .  A
C571        H584   1.083   1_556  S
C572        C575   1.488   1_556  S
C572        C573   1.408       .  A
C573        C574   1.400       .  A
C573        H585   1.081       .  S
C574        H586   1.083       .  S
C575        H587   1.083       .  S
C575        C576   1.350   1_554  D
C576        H588   1.085       .  S
C576        C577   1.492       .  S
C577        C578   1.406       .  A
C577        C582   1.410   1_556  A
C578        C579   1.400       .  A
C578        H589   1.083       .  S
C579        C580   1.404   1_556  A
C579        H590   1.083       .  S
C580        C581   1.404       .  A
C581        C582   1.398       .  A
C581        H591   1.083       .  S
C582        H592   1.080       .  S
C593        C594   1.404       .  A
C593        C598   1.405       .  A
C594        C595   1.402       .  A
C594        H607   1.083       .  S
C595        C596   1.407       .  A
C595        H608   1.083       .  S
C596        C599   1.495       .  S
C596        C597   1.409       .  A
C597        C598   1.398       .  A
C597        H609   1.079       .  S
C598        H610   1.083       .  S
C599        H611   1.084       .  S
C599        C600   1.351       .  D
C600        H612   1.083       .  S
C600        C601   1.490       .  S
C601        C602   1.404       .  A
C601        C606   1.409       .  A
C602        C603   1.398       .  A
C602        H613   1.084       .  S
C603        C604   1.405       .  A
C603        H614   1.083       .  S
C604        C605   1.405       .  A
C605        C606   1.401       .  A
C605        H615   1.083       .  S
C606        H616   1.081       .  S
C617        C618   1.404       .  A
C617        C622   1.405       .  A
C618        C619   1.399       .  A
C618        H631   1.083       .  S
C619        C620   1.405       .  A
C619        H632   1.083       .  S
C620        C623   1.489       .  S
C620        C621   1.409       .  A
C621        C622   1.398       .  A
C621        H633   1.081       .  S
C622        H634   1.083       .  S
C623        H635   1.084       .  S
C623        C624   1.349       .  D
C624        H636   1.084       .  S
C624        C625   1.490       .  S
C625        C626   1.404       .  A
C625        C630   1.409       .  A
C626        C627   1.398       .  A
C626        H637   1.084       .  S
C627        C628   1.404       .  A
C627        H638   1.083       .  S
C628        C629   1.405       .  A
C629        C630   1.400       .  A
C629        H639   1.083       .  S
C630        H640   1.080       .  S
C641        C642   1.403   1_554  A
C641        C646   1.406       .  A
C642        C643   1.400       .  A
C642        H655   1.083       .  S
C643        C644   1.406   1_556  A
C643        H656   1.083       .  S
C644        C647   1.493   1_554  S
C644        C645   1.409       .  A
C645        C646   1.399       .  A
C645        H657   1.080       .  S
C646        H658   1.083       .  S
C647        H659   1.085       .  S
C647        C648   1.350   1_556  D
C648        H660   1.084       .  S
C648        C649   1.490   1_554  S
C649        C650   1.405   1_556  A
C649        C654   1.408       .  A
C650        C651   1.400   1_554  A
C650        H661   1.083       .  S
C651        C652   1.405       .  A
C651        H662   1.083       .  S
C652        C653   1.406       .  A
C653        C654   1.400       .  A
C653        H663   1.083       .  S
C654        H664   1.082       .  S
C665        C666   1.405       .  A
C665        C670   1.404       .  A
C666        C667   1.401       .  A
C666        H679   1.083       .  S
C667        C668   1.406       .  A
C667        H680   1.083       .  S
C668        C671   1.492       .  S
C668        C669   1.409       .  A
C669        C670   1.397       .  A
C669        H681   1.080       .  S
C670        H682   1.083       .  S
C671        H683   1.084       .  S
C671        C672   1.350       .  D
C672        H684   1.084       .  S
C672        C673   1.491       .  S
C673        C674   1.405       .  A
C673        C678   1.409       .  A
C674        C675   1.398       .  A
C674        H685   1.083       .  S
C675        C676   1.404       .  A
C675        H686   1.083       .  S
C676        C677   1.405       .  A
C677        C678   1.401       .  A
C677        H687   1.083       .  S
C678        H688   1.081       .  S
C689        C690   1.405       .  A
C689        C694   1.405       .  A
C690        C691   1.401       .  A
C690        H703   1.083       .  S
C691        C692   1.406       .  A
C691        H704   1.083       .  S
C692        C695   1.492       .  S
C692        C693   1.409       .  A
C693        C694   1.398       .  A
C693        H705   1.080       .  S
C694        H706   1.083       .  S
C695        H707   1.084       .  S
C695        C696   1.349       .  D
C696        H708   1.084       .  S
C696        C697   1.491       .  S
C697        C698   1.404       .  A
C697        C702   1.410       .  A
C698        C699   1.398       .  A
C698        H709   1.083       .  S
C699        C700   1.405       .  A
C699        H710   1.083       .  S
C700        C701   1.405       .  A
C701        C702   1.401       .  A
C701        H711   1.083       .  S
C702        H712   1.081       .  S
C713        C714   1.405       .  A
C713        C718   1.406       .  A
C714        C715   1.398       .  A
C714        H727   1.083       .  S
C715        C716   1.404       .  A
C715        H728   1.084       .  S
C716        C719   1.490       .  S
C716        C717   1.409       .  A
C717        C718   1.403       .  A
C717        H729   1.081       .  S
C718        H730   1.083       .  S
C719        H731   1.086       .  S
C719        C720   1.348       .  D
C720        H732   1.085       .  S
C720        C721   1.488   1_556  S
C721        C722   1.403       .  A
C721        C726   1.407   1_554  A
C722        C723   1.401       .  A
C722        H733   1.083       .  S
C723        C724   1.406       .  A
C723        H734   1.083       .  S
C724        C725   1.406       .  A
C725        C726   1.400   1_554  A
C725        H735   1.083   1_554  S
C726        H736   1.082       .  S
C737        C738   1.404       .  A
C737        C742   1.405       .  A
C738        C739   1.399   1_556  A
C738        H751   1.083   1_556  S
C739        C740   1.405   1_554  A
C739        H752   1.083       .  S
C740        C743   1.491       .  S
C740        C741   1.409       .  A
C741        C742   1.399       .  A
C741        H753   1.080       .  S
C742        H754   1.083       .  S
C743        H755   1.085   1_556  S
C743        C744   1.349       .  D
C744        H756   1.084       .  S
C744        C745   1.489       .  S
C745        C746   1.405       .  A
C745        C750   1.408   1_556  A
C746        C747   1.400       .  A
C746        H757   1.083       .  S
C747        C748   1.404   1_556  A
C747        H758   1.083       .  S
C748        C749   1.406       .  A
C749        C750   1.399       .  A
C749        H759   1.083       .  S
C750        H760   1.081       .  S
C761        C762   1.405       .  A
C761        C766   1.405       .  A
C762        C763   1.401       .  A
C762        H775   1.083       .  S
C763        C764   1.406       .  A
C763        H776   1.083       .  S
C764        C767   1.497       .  S
C764        C765   1.411       .  A
C765        C766   1.401       .  A
C765        H777   1.080       .  S
C766        H778   1.083       .  S
C767        H779   1.083       .  S
C767        C768   1.352       .  D
C768        H780   1.084       .  S
C768        C769   1.498       .  S
C769        C770   1.406       .  A
C769        C774   1.412       .  A
C770        C771   1.398       .  A
C770        H781   1.083       .  S
C771        C772   1.404       .  A
C771        H782   1.083       .  S
C772        C773   1.405       .  A
C773        C774   1.404       .  A
C773        H783   1.083       .  S
C774        H784   1.079       .  S
C785        C786   1.405       .  A
C785        C790   1.405       .  A
C786        C787   1.400       .  A
C786        H799   1.083       .  S
C787        C788   1.406       .  A
C787        H800   1.083       .  S
C788        C791   1.496       .  S
C788        C789   1.411       .  A
C789        C790   1.401       .  A
C789        H801   1.080       .  S
C790        H802   1.083       .  S
C791        H803   1.084       .  S
C791        C792   1.350       .  D
C792        H804   1.083       .  S
C792        C793   1.493       .  S
C793        C794   1.404       .  A
C793        C798   1.411       .  A
C794        C795   1.397       .  A
C794        H805   1.083       .  S
C795        C796   1.405       .  A
C795        H806   1.083       .  S
C796        C797   1.406       .  A
C797        C798   1.404       .  A
C797        H807   1.083       .  S
C798        H808   1.081       .  S
C809        C810   1.406   1_554  A
C809        C814   1.407       .  A
C810        C811   1.401       .  A
C810        H823   1.083       .  S
C811        C812   1.404       .  A
C811        H824   1.083       .  S
C812        C815   1.491       .  S
C812        C813   1.407   1_556  A
C813        C814   1.402       .  A
C813        H825   1.082       .  S
C814        H826   1.083       .  S
C815        H827   1.086       .  S
C815        C816   1.350   1_556  D
C816        H828   1.086       .  S
C816        C817   1.492   1_554  S
C817        C818   1.405   1_556  A
C817        C822   1.408       .  A
C818        C819   1.401   1_554  A
C818        H829   1.083       .  S
C819        C820   1.406       .  A
C819        H830   1.083   1_556  S
C820        C821   1.406       .  A
C821        C822   1.403       .  A
C821        H831   1.083       .  S
C822        H832   1.082       .  S
C833        C834   1.403       .  A
C833        C838   1.407       .  A
C834        C835   1.397       .  A
C834        H847   1.083   1_565  S
C835        C836   1.403       .  A
C835        H848   1.083   1_554  S
C836        C839   1.487   1_554  S
C836        C837   1.408       .  A
C837        C838   1.402       .  A
C837        H849   1.082       .  S
C838        H850   1.083       .  S
C839        H851   1.086       .  S
C839        C840   1.347   1_556  D
C840        H852   1.086       .  S
C840        C841   1.489   1_554  S
C841        C842   1.404   1_556  A
C841        C846   1.408       .  A
C842        C843   1.401       .  A
C842        H853   1.083       .  S
C843        C844   1.406   1_554  A
C843        H854   1.083       .  S
C844        C845   1.406       .  A
C845        C846   1.399       .  A
C845        H855   1.083       .  S
C846        H856   1.082       .  S
C857        C858   1.404       .  A
C857        C862   1.406       .  A
C858        C859   1.398       .  A
C858        H871   1.083       .  S
C859        C860   1.406       .  A
C859        H872   1.084       .  S
C860        C863   1.494       .  S
C860        C861   1.410       .  A
C861        C862   1.403       .  A
C861        H873   1.080       .  S
C862        H874   1.083       .  S
C863        H875   1.085       .  S
C863        C864   1.351       .  D
C864        H876   1.083       .  S
C864        C865   1.491       .  S
C865        C866   1.406       .  A
C865        C870   1.408       .  A
C866        C867   1.403       .  A
C866        H877   1.083       .  S
C867        C868   1.406       .  A
C867        H878   1.083       .  S
C868        C869   1.403       .  A
C869        C870   1.396       .  A
C869        H879   1.083       .  S
C870        H880   1.081       .  S
C881        C882   1.406       .  A
C881        C886   1.406       .  A
C882        C883   1.401       .  A
C882        H895   1.083       .  S
C883        C884   1.404       .  A
C883        H896   1.083       .  S
C884        C887   1.491       .  S
C884        C885   1.408       .  A
C885        C886   1.400       .  A
C885        H897   1.082   1_455  S
C886        H898   1.083   1_455  S
C887        H899   1.085   1_554  S
C887        C888   1.350       .  D
C888        H900   1.086       .  S
C888        C889   1.492   1_554  S
C889        C890   1.405   1_556  A
C889        C894   1.409       .  A
C890        C891   1.400   1_554  A
C890        H901   1.083   1_455  S
C891        C892   1.405       .  A
C891        H902   1.083   1_456  S
C892        C893   1.406       .  A
C893        C894   1.401       .  A
C893        H903   1.083       .  S
C894        H904   1.081       .  S
C905        C906   1.405       .  A
C905        C910   1.403       .  A
C906        C907   1.398       .  A
C906        H919   1.083       .  S
C907        C908   1.404       .  A
C907        H920   1.083       .  S
C908        C911   1.485       .  S
C908        C909   1.408       .  A
C909        C910   1.396       .  A
C909        H921   1.081       .  S
C910        H922   1.083       .  S
C911        H923   1.084       .  S
C911        C912   1.348       .  D
C912        H924   1.085       .  S
C912        C913   1.488       .  S
C913        C914   1.404       .  A
C913        C918   1.409       .  A
C914        C915   1.397       .  A
C914        H925   1.084       .  S
C915        C916   1.404       .  A
C915        H926   1.083       .  S
C916        C917   1.405       .  A
C917        C918   1.399       .  A
C917        H927   1.083       .  S
C918        H928   1.080       .  S
C929        C930   1.405   1_554  A
C929        C934   1.406       .  A
C930        C931   1.399       .  A
C930        H943   1.083       .  S
C931        C932   1.405   1_556  A
C931        H944   1.083       .  S
C932        C935   1.494   1_554  S
C932        C933   1.410       .  A
C933        C934   1.402       .  A
C933        H945   1.081       .  S
C934        H946   1.083       .  S
C935        H947   1.083       .  S
C935        C936   1.351   1_556  D
C936        H948   1.085       .  S
C936        C937   1.496   1_554  S
C937        C938   1.406   1_556  A
C937        C942   1.410       .  A
C938        C939   1.400   1_554  A
C938        H949   1.083       .  S
C939        C940   1.404       .  A
C939        H950   1.083   1_556  S
C940        C941   1.405       .  A
C941        C942   1.401       .  A
C941        H951   1.083       .  S
C942        H952   1.080       .  S
C953        C954   1.404       .  A
C953        C958   1.406       .  A
C954        C955   1.398   1_556  A
C954        H967   1.083   1_556  S
C955        C956   1.403   1_554  A
C955        H968   1.083       .  S
C956        C959   1.487   1_556  S
C956        C957   1.408       .  A
C957        C958   1.400       .  A
C957        H969   1.082       .  S
C958        H970   1.083       .  S
C959        H971   1.085       .  S
C959        C960   1.348   1_554  D
C960        H972   1.085       .  S
C960        C961   1.489   1_556  S
C961        C962   1.404   1_554  A
C961        C966   1.408       .  A
C962        C963   1.400   1_556  A
C962        H973   1.083       .  S
C963        C964   1.405       .  A
C963        H974   1.083   1_554  S
C964        C965   1.406       .  A
C965        C966   1.400       .  A
C965        H975   1.083       .  S
C966        H976   1.081       .  S
C977        C978   1.411       .  A
C977        C982   1.408       .  A
C978        C979   1.403       .  A
C978        H991   1.078       .  S
C979        C980   1.403       .  A
C979        H992   1.083       .  S
C980        C983   1.489       .  S
C980        C981   1.405       .  A
C981        C982   1.395       .  A
C981        H993   1.082       .  S
C982        H994   1.083       .  S
C983        H995   1.084       .  S
C983        C984   1.350       .  D
C984        H996   1.086       .  S
C984        C985   1.491       .  S
C985        C986   1.405       .  A
C985        C990   1.410       .  A
C986        C987   1.397       .  A
C986        H997   1.084       .  S
C987        C988   1.404       .  A
C987        H998   1.083       .  S
C988        C989   1.405       .  A
C989        C990   1.402       .  A
C989        H999   1.083       .  S
C990       H1000   1.080       .  S
C1001      C1002   1.405       .  A
C1001      C1006   1.407       .  A
C1002      C1003   1.396       .  A
C1002      H1015   1.079       .  S
C1003      C1004   1.402       .  A
C1003      H1016   1.083       .  S
C1004      C1007   1.487       .  S
C1004      C1005   1.408       .  A
C1005      C1006   1.400       .  A
C1005      H1017   1.081       .  S
C1006      H1018   1.082       .  S
C1007      H1019   1.084       .  S
C1007      C1008   1.348       .  D
C1008      H1020   1.085       .  S
C1008      C1009   1.489       .  S
C1009      C1010   1.405       .  A
C1009      C1014   1.408       .  A
C1010      C1011   1.399       .  A
C1010      H1021   1.083       .  S
C1011      C1012   1.402       .  A
C1011      H1022   1.083       .  S
C1012      C1013   1.404       .  A
C1013      C1014   1.397       .  A
C1013      H1023   1.083       .  S
C1014      H1024   1.081       .  S
C1025      C1026   1.404       .  A
C1025      C1030   1.405       .  A
C1026      C1027   1.397       .  A
C1026      H1039   1.083       .  S
C1027      C1028   1.404       .  A
C1027      H1040   1.083       .  S
C1028      C1031   1.485       .  S
C1028      C1029   1.408       .  A
C1029      C1030   1.398       .  A
C1029      H1041   1.081       .  S
C1030      H1042   1.083       .  S
C1031      H1043   1.086       .  S
C1031      C1032   1.346       .  D
C1032      H1044   1.085       .  S
C1032      C1033   1.483       .  S
C1033      C1034   1.401       .  A
C1033      C1038   1.404       .  A
C1034      C1035   1.399       .  A
C1034      H1045   1.084       .  S
C1035      C1036   1.411       .  A
C1035      H1046   1.077       .  S
C1036      C1037   1.409       .  A
C1037      C1038   1.396       .  A
C1037      H1047   1.083       .  S
C1038      H1048   1.082       .  S
C1049      C1050   1.406       .  A
C1049      C1054   1.408       .  A
C1050      C1051   1.395       .  A
C1050      H1063   1.079       .  S
C1051      C1052   1.401       .  A
C1051      H1064   1.084       .  S
C1052      C1055   1.483       .  S
C1052      C1053   1.406       .  A
C1053      C1054   1.398       .  A
C1053      H1065   1.081       .  S
C1054      H1066   1.082       .  S
C1055      H1067   1.085       .  S
C1055      C1056   1.347       .  D
C1056      H1068   1.085       .  S
C1056      C1057   1.485       .  S
C1057      C1058   1.404       .  A
C1057      C1062   1.408       .  A
C1058      C1059   1.399       .  A
C1058      H1069   1.083       .  S
C1059      C1060   1.403       .  A
C1059      H1070   1.083       .  S
C1060      C1061   1.402       .  A
C1061      C1062   1.395       .  A
C1061      H1071   1.083       .  S
C1062      H1072   1.081       .  S
C1073      C1074   1.410       .  A
C1073      C1078   1.410       .  A
C1074      C1075   1.397       .  A
C1074      H1087   1.083       .  S
C1075      C1076   1.401       .  A
C1075      H1088   1.083       .  S
C1076      C1079   1.488       .  S
C1076      C1077   1.407       .  A
C1077      C1078   1.400       .  A
C1077      H1089   1.082       .  S
C1078      H1090   1.077       .  S
C1079      H1091   1.085       .  S
C1079      C1080   1.347       .  D
C1080      H1092   1.086       .  S
C1080      C1081   1.489       .  S
C1081      C1082   1.403       .  A
C1081      C1086   1.409       .  A
C1082      C1083   1.399       .  A
C1082      H1093   1.083       .  S
C1083      C1084   1.405       .  A
C1083      H1094   1.083       .  S
C1084      C1085   1.406       .  A
C1085      C1086   1.401       .  A
C1085      H1095   1.083       .  S
C1086      H1096   1.081       .  S
C1097      C1098   1.404       .  A
C1097      C1102   1.405       .  A
C1098      C1099   1.394       .  A
C1098      H1111   1.083       .  S
C1099      C1100   1.402       .  A
C1099      H1112   1.084       .  S
C1100      C1103   1.489       .  S
C1100      C1101   1.411       .  A
C1101      C1102   1.403       .  A
C1101      H1113   1.080       .  S
C1102      H1114   1.083       .  S
C1103      H1115   1.084       .  S
C1103      C1104   1.348       .  D
C1104      H1116   1.084       .  S
C1104      C1105   1.491       .  S
C1105      C1106   1.403       .  A
C1105      C1110   1.409       .  A
C1106      C1107   1.398       .  A
C1106      H1117   1.083       .  S
C1107      C1108   1.408       .  A
C1107      H1118   1.082       .  S
C1108      C1109   1.405       .  A
C1109      C1110   1.397       .  A
C1109      H1119   1.082       .  S
C1110      H1120   1.080       .  S
C1121      C1122   1.411       .  A
C1121      C1126   1.409       .  A
C1122      C1123   1.400       .  A
C1122      H1135   1.077       .  S
C1123      C1124   1.401       .  A
C1123      H1136   1.083       .  S
C1124      C1127   1.485       .  S
C1124      C1125   1.405       .  A
C1125      C1126   1.395       .  A
C1125      H1137   1.082       .  S
C1126      H1138   1.084       .  S
C1127      H1139   1.084       .  S
C1127      C1128   1.346       .  D
C1128      H1140   1.086       .  S
C1128      C1129   1.486       .  S
C1129      C1130   1.402       .  A
C1129      C1134   1.410       .  A
C1130      C1131   1.393       .  A
C1130      H1141   1.084       .  S
C1131      C1132   1.403       .  A
C1131      H1142   1.083       .  S
C1132      C1133   1.405       .  A
C1133      C1134   1.402       .  A
C1133      H1143   1.083       .  S
C1134      H1144   1.081       .  S
C1145      C1146   1.403       .  A
C1145      C1150   1.401       .  A
C1146      C1147   1.398       .  A
C1146      H1159   1.083       .  S
C1147      C1148   1.404       .  A
C1147      H1160   1.083       .  S
C1148      C1151   1.485       .  S
C1148      C1149   1.409       .  A
C1149      C1150   1.395       .  A
C1149      H1161   1.081       .  S
C1150      H1162   1.080       .  S
C1151      H1163   1.086       .  S
C1151      C1152   1.345       .  D
C1152      H1164   1.084       .  S
C1152      C1153   1.479       .  S
C1153      C1154   1.399       .  A
C1153      C1158   1.407       .  A
C1154      C1155   1.392       .  A
C1154      H1165   1.084       .  S
C1155      C1156   1.401       .  A
C1155      H1166   1.072       .  S
C1156      C1157   1.406       .  A
C1157      C1158   1.400       .  A
C1157      H1167   1.083       .  S
C1158      H1168   1.082       .  S
C1169      C1170   1.406       .  A
C1169      C1174   1.402       .  A
C1170      C1171   1.396       .  A
C1170      H1183   1.083       .  S
C1171      C1172   1.401       .  A
C1171      H1184   1.083       .  S
C1172      C1175   1.479       .  S
C1172      C1173   1.406       .  A
C1173      C1174   1.398       .  A
C1173      H1185   1.082       .  S
C1174      H1186   1.079       .  S
C1175      H1187   1.084       .  S
C1175      C1176   1.346       .  D
C1176      H1188   1.086       .  S
C1176      C1177   1.484       .  S
C1177      C1178   1.403       .  A
C1177      C1182   1.410       .  A
C1178      C1179   1.395       .  A
C1178      H1189   1.083       .  S
C1179      C1180   1.400       .  A
C1179      H1190   1.081       .  S
C1180      C1181   1.400       .  A
C1181      C1182   1.398       .  A
C1181      H1191   1.083       .  S
C1182      H1192   1.081       .  S
C1193      C1194   1.411       .  A
C1193      C1198   1.407       .  A
C1194      C1195   1.400       .  A
C1194      H1207   1.078       .  S
C1195      C1196   1.401       .  A
C1195      H1208   1.083       .  S
C1196      C1199   1.486       .  S
C1196      C1197   1.405       .  A
C1197      C1198   1.394       .  A
C1197      H1209   1.082       .  S
C1198      H1210   1.083       .  S
C1199      H1211   1.083       .  S
C1199      C1200   1.347       .  D
C1200      H1212   1.086       .  S
C1200      C1201   1.488       .  S
C1201      C1202   1.403       .  A
C1201      C1206   1.411       .  A
C1202      C1203   1.392       .  A
C1202      H1213   1.084       .  S
C1203      C1204   1.403       .  A
C1203      H1214   1.083       .  S
C1204      C1205   1.405       .  A
C1205      C1206   1.403       .  A
C1205      H1215   1.083       .  S
C1206      H1216   1.080       .  S
C1217      C1218   1.404       .  A
C1217      C1222   1.404       .  A
C1218      C1219   1.399       .  A
C1218      H1231   1.083       .  S
C1219      C1220   1.404       .  A
C1219      H1232   1.083       .  S
C1220      C1223   1.486       .  S
C1220      C1221   1.408       .  A
C1221      C1222   1.395       .  A
C1221      H1233   1.080       .  S
C1222      H1234   1.082       .  S
C1223      H1235   1.086       .  S
C1223      C1224   1.348       .  D
C1224      H1236   1.084       .  S
C1224      C1225   1.481       .  S
C1225      C1226   1.403       .  A
C1225      C1230   1.407       .  A
C1226      C1227   1.396       .  A
C1226      H1237   1.083       .  S
C1227      C1228   1.401       .  A
C1227      H1238   1.083       .  S
C1228      C1229   1.404       .  A
C1229      C1230   1.397       .  A
C1229      H1239   1.083       .  S
C1230      H1240   1.082       .  S
C1241      C1242   1.412       .  A
C1241      C1246   1.407       .  A
C1242      C1243   1.399       .  A
C1242      H1255   1.077       .  S
C1243      C1244   1.401       .  A
C1243      H1256   1.083       .  S
C1244      C1247   1.487       .  S
C1244      C1245   1.406       .  A
C1245      C1246   1.396       .  A
C1245      H1257   1.081       .  S
C1246      H1258   1.083       .  S
C1247      H1259   1.085       .  S
C1247      C1248   1.348       .  D
C1248      H1260   1.085       .  S
C1248      C1249   1.485       .  S
C1249      C1250   1.403       .  A
C1249      C1254   1.408       .  A
C1250      C1251   1.395       .  A
C1250      H1261   1.084       .  S
C1251      C1252   1.404       .  A
C1251      H1262   1.083       .  S
C1252      C1253   1.405       .  A
C1253      C1254   1.401       .  A
C1253      H1263   1.083       .  S
C1254      H1264   1.081       .  S
C1265      C1266   1.400       .  A
C1265      C1270   1.402       .  A
C1266      C1267   1.394       .  A
C1266      H1279   1.080       .  S
C1267      C1268   1.402       .  A
C1267      H1280   1.083       .  S
C1268      C1271   1.484       .  S
C1268      C1269   1.410       .  A
C1269      C1270   1.400       .  A
C1269      H1281   1.081       .  S
C1270      H1282   1.083       .  S
C1271      H1283   1.085       .  S
C1271      C1272   1.346       .  D
C1272      H1284   1.085       .  S
C1272      C1273   1.483       .  S
C1273      C1274   1.400       .  A
C1273      C1278   1.407       .  A
C1274      C1275   1.395       .  A
C1274      H1285   1.083       .  S
C1275      C1276   1.408       .  A
C1275      H1286   1.082       .  S
C1276      C1277   1.404       .  A
C1277      C1278   1.398       .  A
C1277      H1287   1.078       .  S
C1278      H1288   1.082       .  S
C1289      C1290   1.407       .  A
C1289      C1294   1.410       .  A
C1290      C1291   1.395       .  A
C1290      H1303   1.074       .  S
C1291      C1292   1.400       .  A
C1291      H1304   1.084       .  S
C1292      C1295   1.486       .  S
C1292      C1293   1.406       .  A
C1293      C1294   1.399       .  A
C1293      H1305   1.081       .  S
C1294      H1306   1.081       .  S
C1295      H1307   1.083       .  S
C1295      C1296   1.348       .  D
C1296      H1308   1.085       .  S
C1296      C1297   1.489       .  S
C1297      C1298   1.403       .  A
C1297      C1302   1.408       .  A
C1298      C1299   1.398       .  A
C1298      H1309   1.083       .  S
C1299      C1300   1.407       .  A
C1299      H1310   1.082       .  S
C1300      C1301   1.405       .  A
C1301      C1302   1.397       .  A
C1301      H1311   1.078       .  S
C1302      H1312   1.080       .  S
C1313      C1314   1.407       .  A
C1313      C1318   1.411       .  A
C1314      C1315   1.392       .  A
C1314      H1327   1.083       .  S
C1315      C1316   1.399       .  A
C1315      H1328   1.084       .  S
C1316      C1319   1.481       .  S
C1316      C1317   1.406       .  A
C1317      C1318   1.402       .  A
C1317      H1329   1.082       .  S
C1318      H1330   1.078       .  S
C1319      H1331   1.085       .  S
C1319      C1320   1.347       .  D
C1320      H1332   1.085       .  S
C1320      C1321   1.488       .  S
C1321      C1322   1.405       .  A
C1321      C1326   1.408       .  A
C1322      C1323   1.402       .  A
C1322      H1333   1.083       .  S
C1323      C1324   1.406       .  A
C1323      H1334   1.083       .  S
C1324      C1325   1.402       .  A
C1325      C1326   1.392       .  A
C1325      H1335   1.083       .  S
C1326      H1336   1.081       .  S
C1337      C1338   1.402       .  A
C1337      C1342   1.404       .  A
C1338      C1339   1.398       .  A
C1338      H1351   1.080       .  S
C1339      C1340   1.404       .  A
C1339      H1352   1.083       .  S
C1340      C1343   1.484       .  S
C1340      C1341   1.406       .  A
C1341      C1342   1.397       .  A
C1341      H1353   1.081       .  S
C1342      H1354   1.083       .  S
C1343      H1355   1.087       .  S
C1343      C1344   1.347       .  D
C1344      H1356   1.085       .  S
C1344      C1345   1.480       .  S
C1345      C1346   1.403       .  A
C1345      C1350   1.404       .  A
C1346      C1347   1.400       .  A
C1346      H1357   1.083       .  S
C1347      C1348   1.405       .  A
C1347      H1358   1.083       .  S
C1348      C1349   1.402       .  A
C1349      C1350   1.394       .  A
C1349      H1359   1.076       .  S
C1350      H1360   1.083       .  S
C1361      C1362   1.405       .  A
C1361      C1366   1.410       .  A
C1362      C1363   1.398       .  A
C1362      H1375   1.080       .  S
C1363      C1364   1.404       .  A
C1363      H1376   1.083       .  S
C1364      C1367   1.485       .  S
C1364      C1365   1.405       .  A
C1365      C1366   1.397       .  A
C1365      H1377   1.081       .  S
C1366      H1378   1.081       .  S
C1367      H1379   1.086       .  S
C1367      C1368   1.350       .  D
C1368      H1380   1.085       .  S
C1368      C1369   1.486       .  S
C1369      C1370   1.405       .  A
C1369      C1374   1.402       .  A
C1370      C1371   1.404       .  A
C1370      H1381   1.083       .  S
C1371      C1372   1.408       .  A
C1371      H1382   1.082       .  S
C1372      C1373   1.403       .  A
C1373      C1374   1.390       .  A
C1373      H1383   1.072       .  S
C1374      H1384   1.082       .  S
C1385      C1386   1.402       .  A
C1385      C1390   1.406       .  A
C1386      C1387   1.398       .  A
C1386      H1399   1.083       .  S
C1387      C1388   1.404       .  A
C1387      H1400   1.083       .  S
C1388      C1391   1.485       .  S
C1388      C1389   1.407       .  A
C1389      C1390   1.399       .  A
C1389      H1401   1.082       .  S
C1390      H1402   1.083       .  S
C1391      H1403   1.082       .  S
C1391      C1392   1.350       .  D
C1392      H1404   1.086       .  S
C1392      C1393   1.493       .  S
C1393      C1394   1.407       .  A
C1393      C1398   1.409       .  A
C1394      C1395   1.402       .  A
C1394      H1405   1.083       .  S
C1395      C1396   1.404       .  A
C1395      H1406   1.083       .  S
C1396      C1397   1.403       .  A
C1397      C1398   1.395       .  A
C1397      H1407   1.083       .  S
C1398      H1408   1.079       .  S
C1409      C1410   1.410       .  A
C1409      C1414   1.410       .  A
C1410      C1411   1.396       .  A
C1410      H1423   1.076       .  S
C1411      C1412   1.401       .  A
C1411      H1424   1.083       .  S
C1412      C1415   1.484       .  S
C1412      C1413   1.405       .  A
C1413      C1414   1.398       .  A
C1413      H1425   1.082       .  S
C1414      H1426   1.083       .  S
C1415      H1427   1.085       .  S
C1415      C1416   1.347       .  D
C1416      H1428   1.086       .  S
C1416      C1417   1.485       .  S
C1417      C1418   1.403       .  A
C1417      C1422   1.407       .  A
C1418      C1419   1.397       .  A
C1418      H1429   1.083       .  S
C1419      C1420   1.404       .  A
C1419      H1430   1.083       .  S
C1420      C1421   1.405       .  A
C1421      C1422   1.398       .  A
C1421      H1431   1.083       .  S
C1422      H1432   1.082       .  S
C1433      C1434   1.408       .  A
C1433      C1438   1.408       .  A
C1434      C1435   1.398       .  A
C1434      H1447   1.081       .  S
C1435      C1436   1.403       .  A
C1435      H1448   1.083       .  S
C1436      C1439   1.488       .  S
C1436      C1437   1.406       .  A
C1437      C1438   1.397       .  A
C1437      H1449   1.081       .  S
C1438      H1450   1.077       .  S
C1439      H1451   1.084       .  S
C1439      C1440   1.349       .  D
C1440      H1452   1.084       .  S
C1440      C1441   1.488       .  S
C1441      C1442   1.404       .  A
C1441      C1446   1.409       .  A
C1442      C1443   1.397       .  A
C1442      H1453   1.083       .  S
C1443      C1444   1.404       .  A
C1443      H1454   1.083       .  S
C1444      C1445   1.405       .  A
C1445      C1446   1.399       .  A
C1445      H1455   1.083       .  S
C1446      H1456   1.081       .  S
C1457      C1458   1.406       .  A
C1457      C1462   1.404       .  A
C1458      C1459   1.403       .  A
C1458      H1471   1.083       .  S
C1459      C1460   1.405       .  A
C1459      H1472   1.083       .  S
C1460      C1463   1.488       .  S
C1460      C1461   1.406       .  A
C1461      C1462   1.395       .  A
C1461      H1473   1.082       .  S
C1462      H1474   1.083       .  S
C1463      H1475   1.083       .  S
C1463      C1464   1.350       .  D
C1464      H1476   1.086       .  S
C1464      C1465   1.490       .  S
C1465      C1466   1.404       .  A
C1465      C1470   1.406       .  A
C1466      C1467   1.398       .  A
C1466      H1477   1.084       .  S
C1467      C1468   1.408       .  A
C1467      H1478   1.077       .  S
C1468      C1469   1.411       .  A
C1469      C1470   1.400       .  A
C1469      H1479   1.083       .  S
C1470      H1480   1.080       .  S
C1481      C1482   1.401       .  A
C1481      C1486   1.404       .  A
C1482      C1483   1.398       .  A
C1482      H1495   1.083       .  S
C1483      C1484   1.405       .  A
C1483      H1496   1.083       .  S
C1484      C1487   1.487       .  S
C1484      C1485   1.408       .  A
C1485      C1486   1.399       .  A
C1485      H1497   1.082       .  S
C1486      H1498   1.083       .  S
C1487      H1499   1.084       .  S
C1487      C1488   1.349       .  D
C1488      H1500   1.085       .  S
C1488      C1489   1.490       .  S
C1489      C1490   1.406       .  A
C1489      C1494   1.408       .  A
C1490      C1491   1.400       .  A
C1490      H1501   1.083       .  S
C1491      C1492   1.404       .  A
C1491      H1502   1.083       .  S
C1492      C1493   1.405       .  A
C1493      C1494   1.396       .  A
C1493      H1503   1.082       .  S
C1494      H1504   1.080       .  S
C1505      C1506   1.411       .  A
C1505      C1510   1.408       .  A
C1506      C1507   1.403       .  A
C1506      H1519   1.079       .  S
C1507      C1508   1.404       .  A
C1507      H1520   1.083       .  S
C1508      C1511   1.492       .  S
C1508      C1509   1.406       .  A
C1509      C1510   1.395       .  A
C1509      H1521   1.081       .  S
C1510      H1522   1.083       .  S
C1511      H1523   1.084       .  S
C1511      C1512   1.350       .  D
C1512      H1524   1.085       .  S
C1512      C1513   1.490       .  S
C1513      C1514   1.404       .  A
C1513      C1518   1.410       .  A
C1514      C1515   1.396       .  A
C1514      H1525   1.084       .  S
C1515      C1516   1.404       .  A
C1515      H1526   1.083       .  S
C1516      C1517   1.406       .  A
C1517      C1518   1.404       .  A
C1517      H1527   1.083       .  S
C1518      H1528   1.081       .  S
C1529      C1530   1.404       .  A
C1529      C1534   1.405       .  A
C1530      C1531   1.394       .  A
C1530      H1543   1.083       .  S
C1531      C1532   1.402       .  A
C1531      H1544   1.084       .  S
C1532      C1535   1.484       .  S
C1532      C1533   1.409       .  A
C1533      C1534   1.402       .  A
C1533      H1545   1.081       .  S
C1534      H1546   1.083       .  S
C1535      H1547   1.086       .  S
C1535      C1536   1.346       .  D
C1536      H1548   1.085       .  S
C1536      C1537   1.483       .  S
C1537      C1538   1.401       .  A
C1537      C1542   1.405       .  A
C1538      C1539   1.399       .  A
C1538      H1549   1.084       .  S
C1539      C1540   1.412       .  A
C1539      H1550   1.077       .  S
C1540      C1541   1.408       .  A
C1541      C1542   1.395       .  A
C1541      H1551   1.083       .  S
C1542      H1552   1.082       .  S
C1553      C1554   1.410       .  A
C1553      C1558   1.406       .  A
C1554      C1555   1.399       .  A
C1554      H1567   1.082       .  S
C1555      C1556   1.401       .  A
C1555      H1568   1.083       .  S
C1556      C1559   1.490       .  S
C1556      C1557   1.408       .  A
C1557      C1558   1.400       .  A
C1557      H1569   1.082       .  S
C1558      H1570   1.078       .  S
C1559      H1571   1.084       .  S
C1559      C1560   1.348       .  D
C1560      H1572   1.085       .  S
C1560      C1561   1.490       .  S
C1561      C1562   1.403       .  A
C1561      C1566   1.411       .  A
C1562      C1563   1.395       .  A
C1562      H1573   1.083       .  S
C1563      C1564   1.402       .  A
C1563      H1574   1.083       .  S
C1564      C1565   1.405       .  A
C1565      C1566   1.404       .  A
C1565      H1575   1.083       .  S
C1566      H1576   1.081       .  S
C1577      C1578   1.406       .  A
C1577      C1582   1.413       .  A
C1578      C1579   1.394       .  A
C1578      H1591   1.075       .  S
C1579      C1580   1.400       .  A
C1579      H1592   1.084       .  S
C1580      C1583   1.485       .  S
C1580      C1581   1.405       .  A
C1581      C1582   1.402       .  A
C1581      H1593   1.082       .  S
C1582      H1594   1.081       .  S
C1583      H1595   1.085       .  S
C1583      C1584   1.348       .  D
C1584      H1596   1.086       .  S
C1584      C1585   1.490       .  S
C1585      C1586   1.404       .  A
C1585      C1590   1.408       .  A
C1586      C1587   1.401       .  A
C1586      H1597   1.084       .  S
C1587      C1588   1.407       .  A
C1587      H1598   1.082       .  S
C1588      C1589   1.402       .  A
C1589      C1590   1.396       .  A
C1589      H1599   1.077       .  S
C1590      H1600   1.080       .  S
C1601      C1602   1.404       .  A
C1601      C1606   1.407       .  A
C1602      C1603   1.393       .  A
C1602      H1615   1.082       .  S
C1603      C1604   1.401       .  A
C1603      H1616   1.084       .  S
C1604      C1607   1.484       .  S
C1604      C1605   1.409       .  A
C1605      C1606   1.402       .  A
C1605      H1617   1.081       .  S
C1606      H1618   1.083       .  S
C1607      H1619   1.082       .  S
C1607      C1608   1.347       .  D
C1608      H1620   1.085       .  S
C1608      C1609   1.493       .  S
C1609      C1610   1.405       .  A
C1609      C1614   1.411       .  A
C1610      C1611   1.399       .  A
C1610      H1621   1.083       .  S
C1611      C1612   1.405       .  A
C1611      H1622   1.083       .  S
C1612      C1613   1.400       .  A
C1613      C1614   1.396       .  A
C1613      H1623   1.080       .  S
C1614      H1624   1.079       .  S
C1625      C1626   1.413       .  A
C1625      C1630   1.408       .  A
C1626      C1627   1.400       .  A
C1626      H1639   1.077       .  S
C1627      C1628   1.400       .  A
C1627      H1640   1.084       .  S
C1628      C1631   1.486       .  S
C1628      C1629   1.406       .  A
C1629      C1630   1.396       .  A
C1629      H1641   1.082       .  S
C1630      H1642   1.083       .  S
C1631      H1643   1.085       .  S
C1631      C1632   1.346       .  D
C1632      H1644   1.086       .  S
C1632      C1633   1.485       .  S
C1633      C1634   1.401       .  A
C1633      C1638   1.409       .  A
C1634      C1635   1.394       .  A
C1634      H1645   1.084       .  S
C1635      C1636   1.404       .  A
C1635      H1646   1.083       .  S
C1636      C1637   1.406       .  A
C1637      C1638   1.403       .  A
C1637      H1647   1.083       .  S
C1638      H1648   1.081       .  S
C1649      C1650   1.410       .  A
C1649      C1654   1.408       .  A
C1650      C1651   1.399       .  A
C1650      H1663   1.077       .  S
C1651      C1652   1.402       .  A
C1651      H1664   1.084       .  S
C1652      C1655   1.486       .  S
C1652      C1653   1.405       .  A
C1653      C1654   1.395       .  A
C1653      H1665   1.081       .  S
C1654      H1666   1.083       .  S
C1655      H1667   1.082       .  S
C1655      C1656   1.348       .  D
C1656      H1668   1.085       .  S
C1656      C1657   1.490       .  S
C1657      C1658   1.404       .  A
C1657      C1662   1.411       .  A
C1658      C1659   1.396       .  A
C1658      H1669   1.084       .  S
C1659      C1660   1.404       .  A
C1659      H1670   1.083       .  S
C1660      C1661   1.403       .  A
C1661      C1662   1.400       .  A
C1661      H1671   1.083       .  S
C1662      H1672   1.079       .  S
C1673      C1674   1.408       .  A
C1673      C1678   1.404       .  A
C1674      C1675   1.400       .  A
C1674      H1687   1.082       .  S
C1675      C1676   1.402       .  A
C1675      H1688   1.083       .  S
C1676      C1679   1.484       .  S
C1676      C1677   1.405       .  A
C1677      C1678   1.396       .  A
C1677      H1689   1.083       .  S
C1678      H1690   1.078       .  S
C1679      H1691   1.085       .  S
C1679      C1680   1.347       .  D
C1680      H1692   1.087       .  S
C1680      C1681   1.485       .  S
C1681      C1682   1.403       .  A
C1681      C1686   1.406       .  A
C1682      C1683   1.397       .  A
C1682      H1693   1.083       .  S
C1683      C1684   1.403       .  A
C1683      H1694   1.079       .  S
C1684      C1685   1.407       .  A
C1685      C1686   1.399       .  A
C1685      H1695   1.082       .  S
C1686      H1696   1.081       .  S
C1697      C1698   1.404       .  A
C1697      C1702   1.408       .  A
C1698      C1699   1.400       .  A
C1698      H1711   1.082       .  S
C1699      C1700   1.404       .  A
C1699      H1712   1.083       .  S
C1700      C1703   1.487       .  S
C1700      C1701   1.406       .  A
C1701      C1702   1.399       .  A
C1701      H1713   1.082       .  S
C1702      H1714   1.082       .  S
C1703      H1715   1.086       .  S
C1703      C1704   1.349       .  D
C1704      H1716   1.086       .  S
C1704      C1705   1.489       .  S
C1705      C1706   1.405       .  A
C1705      C1710   1.406       .  A
C1706      C1707   1.402       .  A
C1706      H1717   1.083       .  S
C1707      C1708   1.406       .  A
C1707      H1718   1.082       .  S
C1708      C1709   1.404       .  A
C1709      C1710   1.398       .  A
C1709      H1719   1.078       .  S
C1710      H1720   1.082       .  S
C1721      C1722   1.406       .  A
C1721      C1726   1.402       .  A
C1722      C1723   1.399       .  A
C1722      H1735   1.083       .  S
C1723      C1724   1.403       .  A
C1723      H1736   1.083       .  S
C1724      C1727   1.486       .  S
C1724      C1725   1.408       .  A
C1725      C1726   1.398       .  A
C1725      H1737   1.082       .  S
C1726      H1738   1.082       .  S
C1727      H1739   1.085       .  S
C1727      C1728   1.347       .  D
C1728      H1740   1.086       .  S
C1728      C1729   1.486       .  S
C1729      C1730   1.404       .  A
C1729      C1734   1.407       .  A
C1730      C1731   1.398       .  A
C1730      H1741   1.083       .  S
C1731      C1732   1.403       .  A
C1731      H1742   1.083       .  S
C1732      C1733   1.407       .  A
C1733      C1734   1.398       .  A
C1733      H1743   1.082       .  S
C1734      H1744   1.081       .  S
C1745      C1746   1.412       .  A
C1745      C1750   1.407       .  A
C1746      C1747   1.401       .  A
C1746      H1759   1.077       .  S
C1747      C1748   1.402       .  A
C1747      H1760   1.083       .  S
C1748      C1751   1.487       .  S
C1748      C1749   1.405       .  A
C1749      C1750   1.395       .  A
C1749      H1761   1.082       .  S
C1750      H1762   1.083       .  S
C1751      H1763   1.085       .  S
C1751      C1752   1.347       .  D
C1752      H1764   1.086       .  S
C1752      C1753   1.484       .  S
C1753      C1754   1.402       .  A
C1753      C1758   1.409       .  A
C1754      C1755   1.393       .  A
C1754      H1765   1.084       .  S
C1755      C1756   1.404       .  A
C1755      H1766   1.083       .  S
C1756      C1757   1.406       .  A
C1757      C1758   1.403       .  A
C1757      H1767   1.083       .  S
C1758      H1768   1.081       .  S
C1769      C1770   1.408       .  A
C1769      C1774   1.406       .  A
C1770      C1771   1.398       .  A
C1770      H1783   1.082       .  S
C1771      C1772   1.402       .  A
C1771      H1784   1.083       .  S
C1772      C1775   1.487       .  S
C1772      C1773   1.407       .  A
C1773      C1774   1.398       .  A
C1773      H1785   1.081       .  S
C1774      H1786   1.078       .  S
C1775      H1787   1.085       .  S
C1775      C1776   1.347       .  D
C1776      H1788   1.085       .  S
C1776      C1777   1.485       .  S
C1777      C1778   1.403       .  A
C1777      C1782   1.409       .  A
C1778      C1779   1.396       .  A
C1778      H1789   1.083       .  S
C1779      C1780   1.401       .  A
C1779      H1790   1.080       .  S
C1780      C1781   1.404       .  A
C1781      C1782   1.400       .  A
C1781      H1791   1.083       .  S
C1782      H1792   1.081       .  S
C1793      C1794   1.404       .  A
C1793      C1798   1.406       .  A
C1794      C1795   1.396       .  A
C1794      H1807   1.083       .  S
C1795      C1796   1.404       .  A
C1795      H1808   1.083       .  S
C1796      C1799   1.486       .  S
C1796      C1797   1.408       .  A
C1797      C1798   1.401       .  A
C1797      H1809   1.081       .  S
C1798      H1810   1.083       .  S
C1799      H1811   1.087       .  S
C1799      C1800   1.347       .  D
C1800      H1812   1.085       .  S
C1800      C1801   1.485       .  S
C1801      C1802   1.402       .  A
C1801      C1806   1.404       .  A
C1802      C1803   1.402       .  A
C1802      H1813   1.083       .  S
C1803      C1804   1.412       .  A
C1803      H1814   1.078       .  S
C1804      C1805   1.408       .  A
C1805      C1806   1.394       .  A
C1805      H1815   1.083       .  S
C1806      H1816   1.082       .  S
C1817      C1818   1.404       .  A
C1817      C1822   1.400       .  A
C1818      C1819   1.401       .  A
C1818      H1831   1.083       .  S
C1819      C1820   1.405       .  A
C1819      H1832   1.083       .  S
C1820      C1823   1.485       .  S
C1820      C1821   1.406       .  A
C1821      C1822   1.394       .  A
C1821      H1833   1.082       .  S
C1822      H1834   1.079       .  S
C1823      H1835   1.084       .  S
C1823      C1824   1.349       .  D
C1824      H1836   1.085       .  S
C1824      C1825   1.485       .  S
C1825      C1826   1.404       .  A
C1825      C1830   1.405       .  A
C1826      C1827   1.397       .  A
C1826      H1837   1.083       .  S
C1827      C1828   1.403       .  A
C1827      H1838   1.078       .  S
C1828      C1829   1.409       .  A
C1829      C1830   1.397       .  A
C1829      H1839   1.082       .  S
C1830      H1840   1.081       .  S
C1841      C1842   1.410       .  A
C1841      C1846   1.405       .  A
C1842      C1843   1.398       .  A
C1842      H1855   1.081       .  S
C1843      C1844   1.401       .  A
C1843      H1856   1.083       .  S
C1844      C1847   1.486       .  S
C1844      C1845   1.406       .  A
C1845      C1846   1.397       .  A
C1845      H1857   1.082       .  S
C1846      H1858   1.077       .  S
C1847      H1859   1.085       .  S
C1847      C1848   1.347       .  D
C1848      H1860   1.086       .  S
C1848      C1849   1.485       .  S
C1849      C1850   1.402       .  A
C1849      C1854   1.409       .  A
C1850      C1851   1.394       .  A
C1850      H1861   1.083       .  S
C1851      C1852   1.404       .  A
C1851      H1862   1.083       .  S
C1852      C1853   1.404       .  A
C1853      C1854   1.402       .  A
C1853      H1863   1.083       .  S
C1854      H1864   1.081       .  S
C1865      C1866   1.405       .  A
C1865      C1870   1.402       .  A
C1866      C1867   1.399       .  A
C1866      H1879   1.083       .  S
C1867      C1868   1.405       .  A
C1867      H1880   1.083       .  S
C1868      C1871   1.493       .  S
C1868      C1869   1.411       .  A
C1869      C1870   1.398       .  A
C1869      H1881   1.079       .  S
C1870      H1882   1.083       .  S
C1871      H1883   1.085       .  S
C1871      C1872   1.348       .  D
C1872      H1884   1.082       .  S
C1872      C1873   1.486       .  S
C1873      C1874   1.402       .  A
C1873      C1878   1.409       .  A
C1874      C1875   1.395       .  A
C1874      H1885   1.083       .  S
C1875      C1876   1.404       .  A
C1875      H1886   1.083       .  S
C1876      C1877   1.405       .  A
C1877      C1878   1.401       .  A
C1877      H1887   1.083       .  S
C1878      H1888   1.081       .  S
C1889      C1890   1.404       .  A
C1889      C1894   1.405       .  A
C1890      C1891   1.395       .  A
C1890      H1903   1.083       .  S
C1891      C1892   1.403       .  A
C1891      H1904   1.084       .  S
C1892      C1895   1.488       .  S
C1892      C1893   1.410       .  A
C1893      C1894   1.402       .  A
C1893      H1905   1.081       .  S
C1894      H1906   1.083       .  S
C1895      H1907   1.085       .  S
C1895      C1896   1.348       .  D
C1896      H1908   1.084       .  S
C1896      C1897   1.489       .  S
C1897      C1898   1.402       .  A
C1897      C1902   1.406       .  A
C1898      C1899   1.400       .  A
C1898      H1909   1.083       .  S
C1899      C1900   1.410       .  A
C1899      H1910   1.077       .  S
C1900      C1901   1.409       .  A
C1901      C1902   1.397       .  A
C1901      H1911   1.083       .  S
C1902      H1912   1.081       .  S
C1913      C1914   1.408       .  A
C1913      C1918   1.403       .  A
C1914      C1915   1.399       .  A
C1914      H1927   1.082       .  S
C1915      C1916   1.404       .  A
C1915      H1928   1.083       .  S
C1916      C1919   1.491       .  S
C1916      C1917   1.408       .  A
C1917      C1918   1.398       .  A
C1917      H1929   1.080       .  S
C1918      H1930   1.075       .  S
C1919      H1931   1.085       .  S
C1919      C1920   1.349       .  D
C1920      H1932   1.083       .  S
C1920      C1921   1.488       .  S
C1921      C1922   1.403       .  A
C1921      C1926   1.408       .  A
C1922      C1923   1.397       .  A
C1922      H1933   1.084       .  S
C1923      C1924   1.402       .  A
C1923      H1934   1.078       .  S
C1924      C1925   1.405       .  A
C1925      C1926   1.400       .  A
C1925      H1935   1.083       .  S
C1926      H1936   1.081       .  S
