geometry optimzed in LAMMPS
_audit_creation_date              2020-11-30 
_audit_creation_method            'lammps2cif' 
_symmetry_space_group_name_H-M    'P1' 
_symmetry_Int_Tables_number       1 
_symmetry_cell_setting            triclinic 
loop_ 
_symmetry_equiv_pos_as_xyz 
  x,y,z 
_cell_length_a                    35.48778701848368 
_cell_length_b                    37.14854077374775 
_cell_length_c                    30.538450813110043 
_cell_angle_alpha                 89.81840803007873 
_cell_angle_beta                  93.11846569791491 
_cell_angle_gamma                 90.11734653674539 
loop_ 
_atom_site_label 
_atom_site_type_symbol 
_atom_site_fract_x 
_atom_site_fract_y 
_atom_site_fract_z 
_atom_site_charge 
O1          O  0.41894622  0.47163658  0.47489646    -0.80090
O2          O  0.07762025  0.03339710  0.48429597    -0.80120
O3          O  0.48929354  0.06758521  0.43742059    -0.80130
O4          O  0.04557712  0.42687801  0.46317622    -0.80070
O5          O  0.02852369  0.08938792  0.48852966    -0.80190
O6          O  0.48598786  0.44045274  0.44866516    -0.80110
O7          O  0.04580664  0.49737908  0.43825461    -0.80090
O8          O  0.44077897  0.01184481  0.43236340    -0.80130
C9          C  0.41434745  0.49125621  0.44118509     1.09600
C10         C  0.07406165  0.01728011  0.44734854     1.09480
C11         C  0.51179635  0.09202009  0.45079891     1.09620
C12         C  0.01479381  0.42010044  0.44196516     1.09500
O13         O  0.45479459  0.41927754  0.52299081    -0.80100
O14         O  0.00342417  0.06329323  0.57111016    -0.80170
O15         O  0.41855202  0.02751064  0.52232632    -0.80110
O16         O  0.07682007  0.47408340  0.52224815    -0.80090
O17         O  0.05290663  0.00822176  0.57060660    -0.80140
O18         O  0.45066445  0.48588549  0.56053362    -0.80110
O19         O  0.01335544  0.43585291  0.54015364    -0.80060
O20         O  0.46395747  0.08692181  0.52165955    -0.80130
Co21       Co  0.47022487  0.46593308  0.50664561     1.51530
Co22       Co  0.03836644  0.04621143  0.52801556     1.51690
Co23       Co  0.45540251  0.04619307  0.47883467     1.51570
Co24       Co  0.02714802  0.46939979  0.48744387     1.51470
O25         O  0.49749033  0.51342394  0.50128710    -1.42030
C26         C  0.98585922  0.41324389  0.54393129     1.09520
C27         C  0.48063479  0.08795695  0.55939633     1.09610
C28         C  0.42274848  0.50691900  0.55583160     1.09550
C29         C  0.07930950  0.98844089  0.55976691     1.09520
C30         C  0.51358388  0.22180821  0.34472685     0.03170
C31         C  0.51180230  0.25494123  0.36649766    -0.12980
C32         C  0.51181631  0.28730523  0.34277762     0.00670
C33         C  0.51134179  0.28646678  0.29695869    -0.11500
C34         C  0.51349015  0.25355322  0.27496355     0.03160
C35         C  0.51596532  0.22138065  0.29901938    -0.10930
H36         H  0.51081097  0.25556729  0.40190871     0.08700
H37         H  0.51029408  0.31145145  0.27849371     0.06290
H38         H  0.51896609  0.19607647  0.28206375     0.06130
C39         C  0.27222627  0.49344357  0.33933826     0.03170
C40         C  0.24009922  0.99806658  0.36342542    -0.12980
C41         C  0.20377476  0.49757930  0.34261252     0.00670
C42         C  0.20040445  0.49559389  0.29648712    -0.11500
C43         C  0.23264859  0.49356560  0.27199522     0.03160
C44         C  0.26849005  0.49188453  0.29353516    -0.10930
H45         H  0.24354312  0.00160534  0.39856476     0.08760
H46         H  0.17279754  0.49548380  0.27950907     0.06290
H47         H  0.29339982  0.48976721  0.27468355     0.06130
C48         C  0.29103469  0.48970779  0.65763350     0.03170
C49         C  0.25565956  0.99558086  0.63569290    -0.12980
C50         C  0.22257943  0.49942164  0.65859532     0.00670
C51         C  0.22566204  0.49892658  0.70469340    -0.11500
C52         C  0.26044984  0.49265501  0.72716673     0.03160
C53         C  0.29280921  0.48746383  0.70376189    -0.10930
H54         H  0.25378898  0.99702968  0.60038495     0.08760
H55         H  0.20096319  0.50307777  0.72338286     0.06290
H56         H  0.31935671  0.48211462  0.72173998     0.06130
C57         C  0.48265871  0.22081433  0.65792156     0.03170
C58         C  0.48428038  0.25251334  0.63290885    -0.12980
C59         C  0.48682880  0.28616244  0.65363351     0.00670
C60         C  0.48913890  0.28794101  0.69944677    -0.11500
C61         C  0.48626508  0.25658235  0.72456508     0.03160
C62         C  0.48233430  0.22309689  0.70373410    -0.10930
H63         H  0.48353417  0.25100563  0.59742575     0.08760
H64         H  0.49228681  0.31382659  0.71554730     0.06290
H65         H  0.48004657  0.19882015  0.72318874     0.06130
C66         C  0.22953330  0.45841262  0.15633706     0.03170
C67         C  0.23094757  0.45956528  0.20216382    -0.12980
C68         C  0.22906030  0.49255149  0.22379462     0.00670
C69         C  0.22532692  0.02454033  0.19936670    -0.11500
C70         C  0.22465937  0.02384566  0.15318803     0.03160
C71         C  0.22769065  0.49053756  0.13200238    -0.10930
H72         H  0.23339831  0.43478853  0.22095402     0.08760
H73         H  0.22405272  0.05005530  0.21634216     0.06290
H74         H  0.22938283  0.48943776  0.09677392     0.06130
O75         O  0.26085843  0.30756448  0.04819015    -0.80090
O76         O  0.22109315  0.15707677  0.01372128    -0.80120
O77         O  0.19991567  0.24766575  0.06118297    -0.80130
O78         O  0.30836420  0.23710033  0.06943148    -0.80070
O79         O  0.17020784  0.21145356  0.01434990    -0.80190
O80         O  0.32706926  0.27725182  0.02420214    -0.80110
O81         O  0.25832462  0.18166187  0.06477180    -0.80090
O82         O  0.20007457  0.31828182  0.03746101    -0.80130
C83         C  0.23138591  0.32637481  0.05673196     1.09600
C84         C  0.23673842  0.15635175  0.05237713     1.09480
C85         C  0.17187472  0.22750000  0.05116642     1.09620
C86         C  0.33152831  0.26140020  0.06069134     1.09500
O87         O  0.29889329  0.25862527  0.93940086    -0.80100
O88         O  0.19397282  0.23698527  0.92937586    -0.80170
O89         O  0.23267019  0.31106115  0.96062066    -0.80110
O90         O  0.28539625  0.16019057  0.98112565    -0.80090
O91         O  0.24653385  0.18257142  0.93013313    -0.80140
O92         O  0.29214734  0.32672806  0.97302557    -0.80110
O93         O  0.33092132  0.21927169  0.98100610    -0.80060
O94         O  0.17058299  0.27167860  0.97760157    -0.80130
Co95       Co  0.27706925  0.28050625  0.99110618     1.51530
Co96       Co  0.21047366  0.19947666  0.97244156     1.51690
Co97       Co  0.21950471  0.27645549  0.01308085     1.51570
Co98       Co  0.29313425  0.20183240  0.02350879     1.51470
O99         O  0.25051177  0.23345060  0.99908034    -1.42030
C100        C  0.32716677  0.23801650  0.94578030     1.09520
C101        C  0.16806495  0.25791762  0.93975687     1.09610
C102        C  0.26015287  0.33331769  0.95465050     1.09550
C103        C  0.26992766  0.15863457  0.94254960     1.09520
C104        C  0.04168265  0.24245978  0.15817629     0.03170
C105        C  0.04201509  0.23975832  0.20405120    -0.12980
C106        C  0.51178643  0.25293208  0.22674083     0.00670
C107        C  0.47957283  0.26579351  0.20344933    -0.11500
C108        C  0.47614232  0.26367101  0.15749348     0.03160
C109        C  0.50767842  0.25230693  0.13503135    -0.10930
H110        H  0.06606872  0.22840896  0.22228873     0.08760
H111        H  0.45630030  0.27581091  0.22146988     0.06290
H112        H  0.50584365  0.25126401  0.09959457     0.06130
C113        C  0.25499868  0.45979726  0.84351234     0.03170
C114        C  0.25433122  0.46012693  0.79767422    -0.12980
C115        C  0.26269996  0.49181584  0.77540123     0.00670
C116        C  0.27238224  0.02301181  0.79913958    -0.11500
C117        C  0.27044691  0.02393785  0.84522200     0.03160
C118        C  0.26016106  0.49212496  0.86675391    -0.10930
H119        H  0.24837938  0.43558368  0.77946908     0.08760
H120        H  0.28055000  0.04673928  0.78125060     0.06290
H121        H  0.25744581  0.49191434  0.90182352     0.06130
C122        C  0.02499319  0.27144146  0.84055338     0.03170
C123        C  0.02169125  0.27071626  0.79458483    -0.12980
C124        C  0.48838798  0.25892457  0.77266331     0.00670
C125        C  0.45766686  0.24863576  0.79665511    -0.11500
C126        C  0.45945050  0.25130911  0.84264894     0.03160
C127        C  0.49326611  0.26314746  0.86435157    -0.10930
H128        H  0.04590508  0.27726544  0.77586181     0.08760
H129        H  0.43213470  0.23905746  0.77935367     0.06290
H130        H  0.49540235  0.26467531  0.89975140     0.06130
C131        C  0.29058617  0.09478718  0.93523790    -0.05740
C132        C  0.27539124  0.12594122  0.91479640     0.00190
C133        C  0.26388722  0.12387788  0.86956065    -0.08380
C134        C  0.26205959  0.09016552  0.84906190    -0.05760
C135        C  0.27616842  0.05876022  0.86965799     0.00180
C136        C  0.29350717  0.06191268  0.91271504    -0.08290
C137        C  0.31627892  0.03231740  0.93604219     0.62090
H138        H  0.30088480  0.09609171  0.96926783     0.12780
H139        H  0.24865438  0.08837404  0.81648332     0.12790
C140        C  0.25496004  0.15678999  0.84182126     0.62320
F141        F  0.34774421  0.04694404  0.95817948    -0.22850
F142        F  0.32922001  0.00721604  0.90720340    -0.20180
F143        F  0.29448944  0.01548135  0.96626897    -0.19850
F144        F  0.28281844  0.18216165  0.84986156    -0.19900
F145        F  0.22047136  0.17035575  0.85165603    -0.20230
F146        F  0.25360801  0.14920939  0.79736588    -0.22900
C147        C  0.28785296  0.37488092  0.90187186    -0.05740
C148        C  0.25599111  0.36492097  0.92451675     0.00190
C149        C  0.22306879  0.38674589  0.91995390    -0.08380
C150        C  0.22315285  0.41681491  0.89161391    -0.05760
C151        C  0.25464996  0.42541985  0.86789892     0.00180
C152        C  0.28737346  0.40380033  0.87230620    -0.08290
C153        C  0.32196160  0.41144700  0.84636913     0.62090
H154        H  0.31374097  0.36006671  0.90794267     0.12780
H155        H  0.19895121  0.43452592  0.88847895     0.12790
C156        C  0.18933510  0.38061926  0.94746362     0.62320
F157        F  0.35140723  0.38822589  0.85761231    -0.22850
F158        F  0.33456580  0.44619570  0.85403374    -0.20180
F159        F  0.31292024  0.40723857  0.80208190    -0.19850
F160        F  0.20095050  0.38168382  0.99131651    -0.19900
F161        F  0.17294921  0.34772789  0.93751538    -0.20230
F162        F  0.16195742  0.40679138  0.94023106    -0.22900
C163        C  0.39670998  0.28542969  0.07142466    -0.05740
C164        C  0.36574404  0.26850039  0.08999356     0.00190
C165        C  0.37040338  0.25563402  0.13381419    -0.08380
C166        C  0.40695890  0.25394892  0.15355252    -0.05760
C167        C  0.43832681  0.26944446  0.13439580     0.00180
C168        C  0.43235003  0.28796097  0.09385091    -0.08290
C169        C  0.46194134  0.31094421  0.07298876     0.62090
H170        H  0.39327198  0.29676377  0.03869664     0.12780
H171        H  0.41084653  0.24017848  0.18481413     0.12790
C172        C  0.33874701  0.24321047  0.16182139     0.62320
F173        F  0.49111875  0.32059019  0.10246615    -0.22850
F174        F  0.47628812  0.29245988  0.03837041    -0.20180
F175        F  0.44560096  0.34250979  0.05704575    -0.19850
F176        F  0.33918862  0.20611441  0.16430057    -0.19900
F177        F  0.30352620  0.25482517  0.14647159    -0.20230
F178        F  0.34454812  0.25682989  0.20381754    -0.22900
C179        C  0.07352916  0.21426071  0.09638711    -0.05740
C180        C  0.07663549  0.23571960  0.13417735     0.00190
C181        C  0.11175513  0.25283485  0.14547246    -0.08380
C182        C  0.14242574  0.24663581  0.11919928    -0.05760
C183        C  0.13895616  0.22674198  0.08004113     0.00180
C184        C  0.10334687  0.21049915  0.06804887    -0.08290
C185        C  0.09547979  0.19065640  0.02492612     0.62090
H186        H  0.04664334  0.20145161  0.08829304     0.12780
H187        H  0.16936481  0.25886560  0.12852454     0.12790
C188        C  0.11726544  0.27928144  0.18339321     0.62320
F189        F  0.05899598  0.17732112  0.02077427    -0.22850
F190        F  0.11978462  0.16178166  0.02228780    -0.20180
F191        F  0.09985688  0.21394877  0.99010407    -0.19850
F192        F  0.12220773  0.26077159  0.22258372    -0.19900
F193        F  0.08664642  0.30214143  0.18490697    -0.20230
F194        F  0.14887504  0.30065264  0.17906198    -0.22900
C195        C  0.39104375  0.25909886  0.85138564    -0.05740
C196        C  0.42515953  0.24346012  0.86719518     0.00190
C197        C  0.42549991  0.22250743  0.90611288    -0.08380
C198        C  0.39283206  0.22153212  0.93006072    -0.05760
C199        C  0.35884396  0.23834491  0.91525785     0.00180
C200        C  0.35755876  0.25614953  0.87380329    -0.08290
C201        C  0.32193732  0.27307302  0.85302702     0.62090
H202        H  0.39110385  0.27499351  0.82161566     0.12780
H203        H  0.39422608  0.20732031  0.96114213     0.12790
C204        C  0.45921126  0.20068289  0.92383409     0.62320
F205        F  0.32652523  0.28413042  0.81028036    -0.22850
F206        F  0.31242113  0.30272994  0.87669790    -0.20180
F207        F  0.29244769  0.24887924  0.85213476    -0.19850
F208        F  0.47813529  0.21955388  0.95727903    -0.19900
F209        F  0.44712214  0.16823416  0.94059085    -0.20230
F210        F  0.48387291  0.19264253  0.89175979    -0.22900
C211        C  0.10726789  0.28992584  0.92318439    -0.05740
C212        C  0.13366030  0.26425660  0.91018463     0.00190
C213        C  0.12494393  0.24399897  0.87141524    -0.08380
C214        C  0.08976719  0.24885382  0.84909453    -0.05760
C215        C  0.06314714  0.27354649  0.86295882     0.00180
C216        C  0.07265701  0.29572545  0.89953977    -0.08290
C217        C  0.04787387  0.32594068  0.91475569     0.62090
H218        H  0.11358900  0.30584168  0.95235654     0.12780
H219        H  0.08192150  0.23189298  0.82129344     0.12790
C220        C  0.15140232  0.21614724  0.85403139     0.62320
F221        F  0.06943336  0.35674393  0.92133378    -0.22850
F222        F  0.03293156  0.31623473  0.95398894    -0.20180
F223        F  0.01873027  0.33431367  0.88460666    -0.19850
F224        F  0.15695718  0.18892831  0.88472478    -0.19900
F225        F  0.18527199  0.23246296  0.84528087    -0.20230
F226        F  0.13725022  0.20048110  0.81543653    -0.22900
C227        C  0.20255723  0.10006842  0.07083951    -0.05740
C228        C  0.23221406  0.12423486  0.08149143     0.00190
C229        C  0.25777033  0.11586262  0.11786752    -0.08380
C230        C  0.25404800  0.08274460  0.13960629    -0.05760
C231        C  0.22525573  0.05825364  0.12794870     0.00180
C232        C  0.19810515  0.06755103  0.09398216    -0.08290
C233        C  0.16410608  0.04392168  0.08240965     0.62090
H234        H  0.18277694  0.10666831  0.04377461     0.12780
H235        H  0.27406439  0.07535857  0.16612483     0.12790
C236        C  0.28897977  0.14124451  0.13445994     0.62320
F237        F  0.13667017  0.06247102  0.05756996    -0.22850
F238        F  0.14804874  0.03213686  0.12017168    -0.20180
F239        F  0.17488924  0.01468508  0.05828715    -0.19850
F240        F  0.27311950  0.17325183  0.14729657    -0.19900
F241        F  0.31387719  0.14749062  0.10192279    -0.20230
F242        F  0.30964561  0.12746679  0.17045102    -0.22900
C243        C  0.19821470  0.37317873  0.09738889    -0.05740
C244        C  0.23301677  0.35757422  0.08773324     0.00190
C245        C  0.26703262  0.37435131  0.10442557    -0.08380
C246        C  0.26462803  0.40722759  0.12704074    -0.05760
C247        C  0.22987698  0.42336006  0.13385559     0.00180
C248        C  0.19607560  0.40580879  0.12006275    -0.08290
C249        C  0.15790636  0.42189193  0.12882442     0.62090
H250        H  0.17224679  0.36015370  0.08591316     0.12780
H251        H  0.28996236  0.42106161  0.13917905     0.12790
C252        C  0.30572363  0.35821528  0.09901204     0.62320
F253        F  0.12837942  0.39993533  0.11398187    -0.22850
F254        F  0.15389347  0.45469726  0.10771265    -0.20180
F255        F  0.15513751  0.42684536  0.17339471    -0.19850
F256        F  0.31321231  0.35685999  0.05513563    -0.19900
F257        F  0.30687004  0.32404978  0.11687392    -0.20230
F258        F  0.33417720  0.37812775  0.12028563    -0.22900
C259        C  0.45652150  0.37306729  0.59669689    -0.05740
C260        C  0.48881588  0.38183557  0.57412222     0.00190
C261        C  0.02068042  0.35859890  0.57774914    -0.08380
C262        C  0.01934969  0.32827864  0.60545416    -0.05760
C263        C  0.48689699  0.31961498  0.62738833     0.00180
C264        C  0.45467576  0.34185566  0.62254760    -0.08290
C265        C  0.41801801  0.33177301  0.64305675     0.62090
H266        H  0.43219386  0.39060357  0.59311078     0.12780
H267        H  0.04319467  0.31015593  0.60904704     0.12790
C268        C  0.05425864  0.36317694  0.54942799     0.62320
F269        F  0.38915475  0.35542085  0.63102438    -0.22850
F270        F  0.42296267  0.33216796  0.68824365    -0.20180
F271        F  0.40690378  0.29767150  0.62953277    -0.19850
F272        F  0.07179809  0.39587107  0.55716818    -0.19900
F273        F  0.04194244  0.36106511  0.50590461    -0.20230
F274        F  0.08105479  0.33656450  0.55733777    -0.22900
C275        C  0.44860321  0.17582266  0.61101112    -0.05740
C276        C  0.48145575  0.18537219  0.63586797     0.00190
C277        C  0.01313337  0.16228371  0.63704919    -0.08380
C278        C  0.01062109  0.12996775  0.61331976    -0.05760
C279        C  0.47816285  0.12060512  0.58725220     0.00180
C280        C  0.44633837  0.14387692  0.58620912    -0.08290
C281        C  0.41023730  0.13565419  0.55897920     0.62090
H282        H  0.42498553  0.19427568  0.61030818     0.12780
H283        H  0.03492040  0.11238902  0.61353192     0.12790
C284        C  0.05006393  0.17250840  0.66150217     0.62320
F285        F  0.38130605  0.15875985  0.56867620    -0.22850
F286        F  0.39833499  0.10093510  0.56715924    -0.20180
F287        F  0.41641039  0.13947178  0.51488639    -0.19850
F288        F  0.04513160  0.17409236  0.70601580    -0.19900
F289        F  0.06208452  0.20572634  0.64707840    -0.20230
F290        F  0.07834227  0.14780144  0.65487011    -0.22900
C291        C  0.04659786  0.36900428  0.40707953    -0.05740
C292        C  0.51291793  0.38857871  0.41130566     0.00190
C293        C  0.47904297  0.37527132  0.38985879    -0.08380
C294        C  0.48002991  0.34228892  0.36721703    -0.05760
C295        C  0.51320641  0.32219420  0.36582390     0.00180
C296        C  0.04723015  0.33582569  0.38525796    -0.08290
C297        C  0.08399909  0.31513358  0.38320627     0.62090
H298        H  0.07262353  0.37913906  0.42254363     0.12780
H299        H  0.45459629  0.33127491  0.35120376     0.12790
C300        C  0.44176589  0.39485641  0.39119903     0.62320
F301        F  0.11437966  0.33422540  0.40164571    -0.22850
F302        F  0.09109858  0.30803156  0.33999198    -0.20180
F303        F  0.08152701  0.28298892  0.40581207    -0.19850
F304        F  0.44558026  0.42951268  0.37531390    -0.19900
F305        F  0.43056579  0.39562006  0.43384511    -0.20230
F306        F  0.41350535  0.37810734  0.36567085    -0.22900
C307        C  0.48550736  0.13136406  0.39133501    -0.05740
C308        C  0.51463260  0.12537237  0.42375591     0.00190
C309        C  0.04364332  0.15170812  0.42994200    -0.08380
C310        C  0.04279565  0.18214715  0.40222703    -0.05760
C311        C  0.51351615  0.18782901  0.37021601     0.00180
C312        C  0.48375189  0.16253926  0.36533184    -0.08290
C313        C  0.44918201  0.16905946  0.33460437     0.62090
H314        H  0.46311871  0.11172087  0.38705664     0.12780
H315        H  0.06469073  0.20242697  0.40589571     0.12790
C316        C  0.07511810  0.14851606  0.46559206     0.62320
F317        F  0.42092006  0.14411323  0.34095993    -0.22850
F318        F  0.45868713  0.16659346  0.29147369    -0.20180
F319        F  0.43457277  0.20286173  0.34197919    -0.19850
F320        F  0.09380257  0.11612325  0.46199207    -0.19900
F321        F  0.06016856  0.15075805  0.50639322    -0.20230
F322        F  0.10154731  0.17578451  0.46285083    -0.22900
C323        C  0.15497960  0.48049513  0.65204689    -0.05740
C324        C  0.18464342  0.50036496  0.63454447     0.00190
C325        C  0.17781245  0.01762751  0.59319471    -0.08380
C326        C  0.14467574  0.00917585  0.56818487    -0.05760
C327        C  0.11536127  0.98957109  0.58588588     0.00180
C328        C  0.11945696  0.47713960  0.62964541    -0.08290
C329        C  0.08652892  0.46106639  0.65280896     0.62090
H330        H  0.15958982  0.46748902  0.68361006     0.12780
H331        H  0.14023283  0.02087794  0.53573424     0.12790
C332        C  0.20236027  0.04722784  0.57532563     0.62320
F333        F  0.09712975  0.44966122  0.69489162    -0.22850
F334        F  0.07196791  0.43188532  0.62974527    -0.20180
F335        F  0.05857428  0.98665917  0.65588592    -0.19850
F336        F  0.22134257  0.53420807  0.54032122    -0.19900
F337        F  0.22799768  0.06091668  0.60669367    -0.20230
F338        F  0.17977094  0.07562771  0.56064495    -0.22900
C339        C  0.35935438  0.48354474  0.56543401    -0.05740
C340        C  0.39077718  0.50184140  0.58401262     0.00190
C341        C  0.39141489  0.01213583  0.62845916    -0.08380
C342        C  0.35841811  0.00745503  0.65140974    -0.05760
C343        C  0.32637924  0.48934691  0.63284261     0.00180
C344        C  0.32835590  0.47464545  0.58995991    -0.08290
C345        C  0.30020518  0.44805857  0.56906381     0.62090
H346        H  0.36000604  0.47417920  0.53185244     0.12780
H347        H  0.35739228  0.01876712  0.68390903     0.12790
C348        C  0.42642102  0.02830363  0.65129113     0.62320
F349        F  0.31939472  0.92029842  0.54996932    -0.22850
F350        F  0.27815709  0.96525271  0.53663353    -0.20180
F351        F  0.27736022  0.43255185  0.59916227    -0.19850
F352        F  0.43568051  0.05994156  0.63077357    -0.19900
F353        F  0.45614260  0.50442228  0.64968690    -0.20230
F354        F  0.42116483  0.53581943  0.69491957    -0.22900
C355        C  0.13552995  0.49086250  0.43490175    -0.05740
C356        C  0.10684732  0.01434828  0.41984202     0.00190
C357        C  0.10844205  0.03017373  0.37785388    -0.08380
C358        C  0.14069071  0.02436765  0.35390965    -0.05760
C359        C  0.16958238  0.50068068  0.36886221     0.00180
C360        C  0.16555273  0.48182680  0.40901087    -0.08290
C361        C  0.19035152  0.45048764  0.42455306     0.62090
H362        H  0.13314060  0.47758448  0.46630107     0.12780
H363        H  0.14359348  0.03859044  0.32329134     0.12790
C364        C  0.07667648  0.05349240  0.35883399     0.62320
F365        F  0.16883050  0.42437336  0.44396386    -0.22850
F366        F  0.21760112  0.96241349  0.45525259    -0.20180
F367        F  0.20735205  0.43409995  0.39024194    -0.19850
F368        F  0.07304839  0.08320178  0.38506968    -0.19900
F369        F  0.04324044  0.53425034  0.35685442    -0.20230
F370        F  0.08328889  0.06534358  0.31690376    -0.22900
C371        C  0.36235485  0.46017343  0.39893790    -0.05740
C372        C  0.37800929  0.49262180  0.41476257     0.00190
C373        C  0.35870169  0.02557591  0.40492591    -0.08380
C374        C  0.32480383  0.02448564  0.37896460    -0.05760
C375        C  0.30976689  0.49214509  0.36266710     0.00180
C376        C  0.32883306  0.45941354  0.37210653    -0.08290
C377        C  0.31373342  0.42395258  0.35391389     0.62090
H378        H  0.37674186  0.43542250  0.40738171     0.12780
H379        H  0.30908680  0.04892762  0.37172056     0.12790
C380        C  0.37179665  0.06166020  0.42375084     0.62320
F381        F  0.33593011  0.39514966  0.36800557    -0.22850
F382        F  0.31283174  0.42487662  0.30860827    -0.20180
F383        F  0.27770518  0.41809616  0.36733993    -0.19850
F384        F  0.40717983  0.07025497  0.41024626    -0.19900
F385        F  0.37249723  0.06022357  0.46888719    -0.20230
F386        F  0.34783143  0.08946182  0.41048938    -0.22900
O387        O  0.41894895  0.97163691  0.47489646    -0.80090
O388        O  0.07761720  0.53339729  0.48429578    -0.80120
O389        O  0.48929006  0.56758570  0.43742094    -0.80130
O390        O  0.04557977  0.92687772  0.46317666    -0.80070
O391        O  0.02852048  0.58938789  0.48853012    -0.80190
O392        O  0.48599068  0.94045289  0.44866533    -0.80110
O393        O  0.04580975  0.99737877  0.43825492    -0.80090
O394        O  0.44077577  0.51184490  0.43236354    -0.80130
C395        C  0.41435039  0.99125647  0.44118501     1.09600
C396        C  0.07405858  0.51728037  0.44734828     1.09480
C397        C  0.51179307  0.59202039  0.45079943     1.09620
C398        C  0.01479648  0.92010044  0.44196539     1.09500
O399        O  0.45479706  0.91927781  0.52299083    -0.80100
O400        O  0.00342113  0.56329276  0.57111041    -0.80170
O401        O  0.41854895  0.52751020  0.52232656    -0.80110
O402        O  0.07682288  0.97408324  0.52224868    -0.80090
O403        O  0.05290373  0.50822148  0.57060640    -0.80140
O404        O  0.45066713  0.98588580  0.56053362    -0.80110
O405        O  0.01335793  0.93585290  0.54015396    -0.80060
O406        O  0.46395425  0.58692159  0.52166013    -0.80130
Co407      Co  0.47022760  0.96593326  0.50664570     1.51530
Co408      Co  0.03836339  0.54621128  0.52801562     1.51690
Co409      Co  0.45539928  0.54619303  0.47883498     1.51570
Co410      Co  0.02715087  0.96939968  0.48744422     1.51470
O411        O  0.49749334  0.01342398  0.50128724    -1.42030
C412        C  0.98586156  0.91324401  0.54393144     1.09520
C413        C  0.48063184  0.58795666  0.55939678     1.09610
C414        C  0.42275134  0.00691953  0.55583148     1.09550
C415        C  0.07930665  0.48844077  0.55976652     1.09520
C416        C  0.51358317  0.72180833  0.34472711     0.03170
C417        C  0.51180244  0.75494152  0.36649772    -0.12980
C418        C  0.51181747  0.78730540  0.34277752     0.00670
C419        C  0.51134302  0.78646676  0.29695861    -0.11500
C420        C  0.51349050  0.75355305  0.27496366     0.03160
C421        C  0.51596479  0.72138052  0.29901965    -0.10930
H422        H  0.51081095  0.75556779  0.40190874     0.08700
H423        H  0.51029596  0.81145137  0.27849350     0.06290
H424        H  0.51896508  0.69607622  0.28206415     0.06130
C425        C  0.27222954  0.99344502  0.33933759     0.03170
C426        C  0.24009578  0.49806511  0.36342579    -0.12980
C427        C  0.20377801  0.99757972  0.34261267     0.00670
C428        C  0.20040736  0.99559353  0.29648730    -0.11500
C429        C  0.23265130  0.99356571  0.27199503     0.03160
C430        C  0.26849296  0.99188548  0.29353454    -0.10930
H431        H  0.24353938  0.50160330  0.39856524     0.08760
H432        H  0.17280034  0.99548258  0.27950952     0.06290
H433        H  0.29340258  0.98976833  0.27468265     0.06130
C434        C  0.29103747  0.98970901  0.65763364     0.03170
C435        C  0.25565685  0.49557951  0.63569256    -0.12980
C436        C  0.22258215  0.99942243  0.65859582     0.00670
C437        C  0.22566484  0.99892688  0.70469388    -0.11500
C438        C  0.26045274  0.99265541  0.72716704     0.03160
C439        C  0.29281211  0.98746467  0.70376203    -0.10930
H440        H  0.25378637  0.49702788  0.60038458     0.08760
H441        H  0.20096596  0.00307764  0.72338343     0.06290
H442        H  0.31935966  0.98211545  0.72173998     0.06130
C443        C  0.48265822  0.72081437  0.65792150     0.03170
C444        C  0.48428046  0.75251334  0.63290878    -0.12980
C445        C  0.48682950  0.78616242  0.65363345     0.00670
C446        C  0.48913968  0.78794097  0.69944671    -0.11500
C447        C  0.48626526  0.75658238  0.72456502     0.03160
C448        C  0.48233384  0.72309698  0.70373403    -0.10930
H449        H  0.48353419  0.75100562  0.59742567     0.08760
H450        H  0.49228806  0.81382651  0.71554726     0.06290
H451        H  0.48004567  0.69882028  0.72318866     0.06130
C452        C  0.22953475  0.95841247  0.15633694     0.03170
C453        C  0.23094947  0.95956519  0.20216371    -0.12980
C454        C  0.22906258  0.99255144  0.22379447     0.00670
C455        C  0.22532474  0.52454041  0.19936688    -0.11500
C456        C  0.22465769  0.52384580  0.15318821     0.03160
C457        C  0.22769198  0.99053738  0.13200220    -0.10930
H458        H  0.23340029  0.93478846  0.22095394     0.08760
H459        H  0.22405029  0.55005535  0.21634235     0.06290
H460        H  0.22938380  0.98943753  0.09677370     0.06130
O461        O  0.26085892  0.80756414  0.04819009    -0.80090
O462        O  0.22109293  0.65707668  0.01372105    -0.80120
O463        O  0.19991570  0.74766588  0.06118266    -0.80130
O464        O  0.30836444  0.73709976  0.06943138    -0.80070
O465        O  0.17020790  0.71145366  0.01434957    -0.80190
O466        O  0.32706963  0.77725119  0.02420206    -0.80110
O467        O  0.25832458  0.68166152  0.06477160    -0.80090
O468        O  0.20007518  0.81828196  0.03746067    -0.80130
C469        C  0.23138654  0.82637469  0.05673176     1.09600
C470        C  0.23673811  0.65635158  0.05237695     1.09480
C471        C  0.17187478  0.72750010  0.05116610     1.09620
C472        C  0.33152862  0.76139957  0.06069126     1.09500
O473        O  0.29889350  0.75862485  0.93940076    -0.80100
O474        O  0.19397311  0.73698535  0.92937563    -0.80170
O475        O  0.23267087  0.81106106  0.96062039    -0.80110
O476        O  0.28539607  0.66019016  0.98112544    -0.80090
O477        O  0.24653389  0.68257133  0.93013292    -0.80140
O478        O  0.29214807  0.82672760  0.97302562    -0.80110
O479        O  0.33092142  0.71927112  0.98100589    -0.80060
O480        O  0.17058334  0.77167879  0.97760125    -0.80130
Co481      Co  0.27706964  0.78050588  0.99110612     1.51530
Co482      Co  0.21047371  0.69947664  0.97244131     1.51690
Co483      Co  0.21950506  0.77645548  0.01308057     1.51570
Co484      Co  0.29313428  0.70183195  0.02350860     1.51470
O485        O  0.25051192  0.73345037  0.99908024    -1.42030
C486        C  0.32716693  0.73801600  0.94578014     1.09520
C487        C  0.16806526  0.75791772  0.93975659     1.09610
C488        C  0.26015374  0.83331742  0.95465035     1.09550
C489        C  0.26992752  0.65863432  0.94254937     1.09520
C490        C  0.04168294  0.74245933  0.15817648     0.03170
C491        C  0.04201528  0.73975776  0.20405138    -0.12980
C492        C  0.51178670  0.75293173  0.22674096     0.00670
C493        C  0.47957304  0.76579306  0.20344949    -0.11500
C494        C  0.47614254  0.76367058  0.15749364     0.03160
C495        C  0.50767866  0.75230660  0.13503150    -0.10930
H496        H  0.06606880  0.72840827  0.22228895     0.08760
H497        H  0.45630050  0.77581042  0.22147005     0.06290
H498        H  0.50584388  0.75126373  0.09959472     0.06130
C499        C  0.25500126  0.95979728  0.84351253     0.03170
C500        C  0.25433420  0.96012701  0.79767441    -0.12980
C501        C  0.26270291  0.99181602  0.77540155     0.00670
C502        C  0.27237973  0.52301160  0.79913911    -0.11500
C503        C  0.27044479  0.52393772  0.84522157     0.03160
C504        C  0.26016330  0.99212498  0.86675419    -0.10930
H505        H  0.24838254  0.93558379  0.77946916     0.08760
H506        H  0.28054767  0.54673894  0.78124998     0.06290
H507        H  0.25744776  0.99191431  0.90182375     0.06130
C508        C  0.02499339  0.77144127  0.84055321     0.03170
C509        C  0.02169144  0.77071608  0.79458467    -0.12980
C510        C  0.48838815  0.75892458  0.77266326     0.00670
C511        C  0.45766702  0.74863574  0.79665504    -0.11500
C512        C  0.45945066  0.75130901  0.84264887     0.03160
C513        C  0.49326627  0.76314733  0.86435154    -0.10930
H514        H  0.04590530  0.77726516  0.77586166     0.08760
H515        H  0.43213486  0.73905746  0.77935358     0.06290
H516        H  0.49540251  0.76467512  0.89975137     0.06130
C517        C  0.29058526  0.59478671  0.93523754    -0.05740
C518        C  0.27539083  0.62594097  0.91479610     0.00190
C519        C  0.26388696  0.62387787  0.86956030    -0.08380
C520        C  0.26205869  0.59016556  0.84906150    -0.05760
C521        C  0.27616697  0.55876003  0.86965755     0.00180
C522        C  0.29350585  0.56191223  0.91271457    -0.08290
C523        C  0.31627745  0.53231675  0.93604152     0.62090
H524        H  0.30088388  0.59609108  0.96926749     0.12780
H525        H  0.24865346  0.58837435  0.81648291     0.12790
C526        C  0.25496091  0.65679020  0.84182088     0.62320
F527        F  0.34774305  0.54694312  0.95817846    -0.22850
F528        F  0.32921804  0.50721523  0.90720263    -0.20180
F529        F  0.29448804  0.51548095  0.96626858    -0.19850
F530        F  0.28282000  0.68216113  0.84986151    -0.19900
F531        F  0.22047252  0.67035687  0.85165526    -0.20230
F532        F  0.25360902  0.64920960  0.79736549    -0.22900
C533        C  0.28785455  0.87488063  0.90187219    -0.05740
C534        C  0.25599239  0.86492075  0.92451659     0.00190
C535        C  0.22307021  0.88674582  0.91995337    -0.08380
C536        C  0.22315472  0.91681493  0.89161352    -0.05760
C537        C  0.25465216  0.92541983  0.86789904     0.00180
C538        C  0.28737553  0.90380016  0.87230672    -0.08290
C539        C  0.32196405  0.91144684  0.84637030     0.62090
H540        H  0.31374244  0.86006626  0.90794325     0.12780
H541        H  0.19895317  0.93452604  0.88847827     0.12790
C542        C  0.18933617  0.88061923  0.94746253     0.62320
F543        F  0.35140947  0.88822558  0.85761381    -0.22850
F544        F  0.33456828  0.94619546  0.85403537    -0.20180
F545        F  0.31292321  0.90723865  0.80208292    -0.19850
F546        F  0.20095109  0.88168357  0.99131558    -0.19900
F547        F  0.17295020  0.84772796  0.93751386    -0.20230
F548        F  0.16195867  0.90679150  0.94022972    -0.22900
C549        C  0.39671024  0.78542916  0.07142474    -0.05740
C550        C  0.36574432  0.76849974  0.08999354     0.00190
C551        C  0.37040363  0.75563334  0.13381416    -0.08380
C552        C  0.40695914  0.75394834  0.15355258    -0.05760
C553        C  0.43832703  0.76944399  0.13439595     0.00180
C554        C  0.43235025  0.78796053  0.09385108    -0.08290
C555        C  0.46194151  0.81094391  0.07298903     0.62090
H556        H  0.39327225  0.79676329  0.03869674     0.12780
H557        H  0.41084678  0.74017787  0.18481417     0.12790
C558        C  0.33874723  0.74320954  0.16182115     0.62320
F559        F  0.49111889  0.82058988  0.10246647    -0.22850
F560        F  0.47628834  0.79245971  0.03837061    -0.20180
F561        F  0.44560104  0.84250948  0.05704614    -0.19850
F562        F  0.33918861  0.70611345  0.16429953    -0.19900
F563        F  0.30352650  0.75482464  0.14647158    -0.20230
F564        F  0.34454841  0.75682834  0.20381759    -0.22900
C565        C  0.07352921  0.71426084  0.09638674    -0.05740
C566        C  0.07663578  0.73571911  0.13417750     0.00190
C567        C  0.11175566  0.75283383  0.14547300    -0.08380
C568        C  0.14242616  0.74663494  0.11919959    -0.05760
C569        C  0.13895628  0.72674188  0.08004088     0.00180
C570        C  0.10334679  0.71049958  0.06804827    -0.08290
C571        C  0.09547935  0.69065780  0.02492491     0.62090
H572        H  0.04664328  0.70145203  0.08829243     0.12780
H573        H  0.16936541  0.75886426  0.12852512     0.12790
C574        C  0.11726644  0.77927967  0.18339447     0.62320
F575        F  0.05899527  0.67732322  0.02077261    -0.22850
F576        F  0.11978359  0.66178269  0.02228575    -0.20180
F577        F  0.09985693  0.71395077  0.99010358    -0.19850
F578        F  0.12220879  0.76076904  0.22258443    -0.19900
F579        F  0.08664770  0.80213990  0.18490911    -0.20230
F580        F  0.14887623  0.80065069  0.17906360    -0.22900
C581        C  0.39104389  0.75909864  0.85138558    -0.05740
C582        C  0.42515969  0.74345993  0.86719509     0.00190
C583        C  0.42550008  0.72250711  0.90611269    -0.08380
C584        C  0.39283221  0.72153167  0.93006051    -0.05760
C585        C  0.35884410  0.73834446  0.91525768     0.00180
C586        C  0.35755889  0.75614918  0.87380319    -0.08290
C587        C  0.32193742  0.77307266  0.85302693     0.62090
H588        H  0.39110398  0.77499338  0.82161567     0.12780
H589        H  0.39422623  0.70731978  0.96114186     0.12790
C590        C  0.45921145  0.70068257  0.92383382     0.62320
F591        F  0.32652532  0.78413006  0.81028027    -0.22850
F592        F  0.31242122  0.80272957  0.87669782    -0.20180
F593        F  0.29244779  0.74887887  0.85213467    -0.19850
F594        F  0.47813546  0.71955350  0.95727883    -0.19900
F595        F  0.44712238  0.66823378  0.94059046    -0.20230
F596        F  0.48387311  0.69264233  0.89175949    -0.22900
C597        C  0.10726809  0.78992578  0.92318414    -0.05740
C598        C  0.13366054  0.76425658  0.91018440     0.00190
C599        C  0.12494415  0.74399882  0.87141510    -0.08380
C600        C  0.08976738  0.74885355  0.84909444    -0.05760
C601        C  0.06314734  0.77354627  0.86295864     0.00180
C602        C  0.07265720  0.79572532  0.89953949    -0.08290
C603        C  0.04787383  0.82594042  0.91475528     0.62090
H604        H  0.11358920  0.80584168  0.95235624     0.12780
H605        H  0.08192168  0.73189265  0.82129341     0.12790
C606        C  0.15140262  0.71614718  0.85403122     0.62320
F607        F  0.06943341  0.85674336  0.92133552    -0.22850
F608        F  0.03292993  0.81623365  0.95398733    -0.20180
F609        F  0.01873140  0.83431432  0.88460507    -0.19850
F610        F  0.15695777  0.68892830  0.88472463    -0.19900
F611        F  0.18527215  0.73246310  0.84528051    -0.20230
F612        F  0.13725048  0.70048090  0.81543646    -0.22900
C613        C  0.20255649  0.60006843  0.07083919    -0.05740
C614        C  0.23221332  0.62423482  0.08149139     0.00190
C615        C  0.25776913  0.61586267  0.11786793    -0.08380
C616        C  0.25404645  0.58274475  0.13960684    -0.05760
C617        C  0.22525427  0.55825380  0.12794892     0.00180
C618        C  0.19810407  0.56755113  0.09398195    -0.08290
C619        C  0.16410504  0.54392183  0.08240910     0.62090
H620        H  0.18277650  0.60666826  0.04377398     0.12780
H621        H  0.27406253  0.57535876  0.16612571     0.12790
C622        C  0.28897853  0.64124450  0.13446065     0.62320
F623        F  0.13666941  0.56247114  0.05756893    -0.22850
F624        F  0.14804726  0.53213720  0.12017095    -0.20180
F625        F  0.17488837  0.51468508  0.05828694    -0.19850
F626        F  0.27311828  0.67325202  0.14729667    -0.19900
F627        F  0.31387643  0.64749021  0.10192391    -0.20230
F628        F  0.30964383  0.62746691  0.17045221    -0.22900
C629        C  0.19821559  0.87317876  0.09738874    -0.05740
C630        C  0.23301756  0.85757407  0.08773309     0.00190
C631        C  0.26703352  0.87435094  0.10442547    -0.08380
C632        C  0.26462913  0.90722722  0.12704066    -0.05760
C633        C  0.22987818  0.92335989  0.13385550     0.00180
C634        C  0.19607669  0.90580881  0.12006266    -0.08290
C635        C  0.15790756  0.92189212  0.12882443     0.62090
H636        H  0.17224760  0.86015388  0.08591298     0.12780
H637        H  0.28996355  0.92106110  0.13917898     0.12790
C638        C  0.30572443  0.85821467  0.09901198     0.62320
F639        F  0.12838049  0.89993560  0.11398206    -0.22850
F640        F  0.15389475  0.95469741  0.10771255    -0.20180
F641        F  0.15513885  0.92684568  0.17339471    -0.19850
F642        F  0.31321314  0.85685934  0.05513558    -0.19900
F643        F  0.30687059  0.82404917  0.11687386    -0.20230
F644        F  0.33417812  0.87812697  0.12028560    -0.22900
C645        C  0.45652349  0.87306785  0.59669725    -0.05740
C646        C  0.48881789  0.88183564  0.57412238     0.00190
C647        C  0.02068197  0.85859845  0.57774890    -0.08380
C648        C  0.01935085  0.82827816  0.60545385    -0.05760
C649        C  0.48689816  0.81961499  0.62738830     0.00180
C650        C  0.45467731  0.84185620  0.62254785    -0.08290
C651        C  0.41801946  0.83177407  0.64305712     0.62090
H652        H  0.43219615  0.89060453  0.59311135     0.12780
H653        H  0.04319551  0.81015504  0.60904647     0.12790
C654        C  0.05426000  0.86317592  0.54942735     0.62320
F655        F  0.38915656  0.85542235  0.63102491    -0.22850
F656        F  0.42296425  0.83216891  0.68824402    -0.20180
F657        F  0.40690463  0.79767274  0.62953310    -0.19850
F658        F  0.07179998  0.89586985  0.55716714    -0.19900
F659        F  0.04194339  0.86106407  0.50590410    -0.20230
F660        F  0.08105582  0.83656314  0.55733697    -0.22900
C661        C  0.44860185  0.67582309  0.61101128    -0.05740
C662        C  0.48145461  0.68537220  0.63586796     0.00190
C663        C  0.01313180  0.66228319  0.63704920    -0.08380
C664        C  0.01061890  0.62996714  0.61332001    -0.05760
C665        C  0.47816045  0.62060493  0.58725261     0.00180
C666        C  0.44633638  0.64387725  0.58620949    -0.08290
C667        C  0.41023512  0.63565499  0.55897971     0.62090
H668        H  0.42498449  0.69427649  0.61030831     0.12780
H669        H  0.03491791  0.61238802  0.61353223     0.12790
C670        C  0.05006259  0.67250739  0.66150203     0.62320
F671        F  0.38130428  0.65876112  0.56867676    -0.22850
F672        F  0.39833225  0.60093611  0.56715987    -0.20180
F673        F  0.41640817  0.63947238  0.51488687    -0.19850
F674        F  0.04513036  0.67409166  0.70601567    -0.19900
F675        F  0.06208373  0.70572507  0.64707802    -0.20230
F676        F  0.07834047  0.64779993  0.65487006    -0.22900
C677        C  0.04660005  0.86900389  0.40707985    -0.05740
C678        C  0.51292043  0.88857881  0.41130573     0.00190
C679        C  0.47904544  0.87527201  0.38985835    -0.08380
C680        C  0.48003199  0.84228967  0.36721646    -0.05760
C681        C  0.51320814  0.82219442  0.36582367     0.00180
C682        C  0.04723193  0.83582533  0.38525814    -0.08290
C683        C  0.08400051  0.81513260  0.38320681     0.62090
H684        H  0.07262576  0.87913821  0.42254433     0.12780
H685        H  0.45459830  0.83127609  0.35120288     0.12790
C686        C  0.44176866  0.89485763  0.39119825     0.62320
F687        F  0.11438131  0.83422390  0.40164662    -0.22850
F688        F  0.09110021  0.80803051  0.33999259    -0.20180
F689        F  0.08152765  0.78298796  0.40581246    -0.19850
F690        F  0.44558375  0.92951395  0.37531353    -0.19900
F691        F  0.43056814  0.89562115  0.43384416    -0.20230
F692        F  0.41350810  0.87810913  0.36566950    -0.22900
C693        C  0.48550528  0.63136434  0.39133478    -0.05740
C694        C  0.51462975  0.62537275  0.42375665     0.00190
C695        C  0.04364008  0.65170876  0.42994400    -0.08380
C696        C  0.04279321  0.68214758  0.40222871    -0.05760
C697        C  0.51351462  0.68782926  0.37021651     0.00180
C698        C  0.48375034  0.66253957  0.36533161    -0.08290
C699        C  0.44918088  0.66905989  0.33460352     0.62090
H700        H  0.46311678  0.61172108  0.38705563     0.12780
H701        H  0.06468821  0.70242741  0.40589803     0.12790
C702        C  0.07511352  0.64851741  0.46559582     0.62320
F703        F  0.42091851  0.64411410  0.34095904    -0.22850
F704        F  0.45868645  0.66659331  0.29147306    -0.20180
F705        F  0.43457198  0.70286243  0.34197761    -0.19850
F706        F  0.09379905  0.61612504  0.46199704    -0.19900
F707        F  0.06016210  0.65075908  0.50639599    -0.20230
F708        F  0.10154225  0.67578646  0.46285613    -0.22900
C709        C  0.15498263  0.98049500  0.65204707    -0.05740
C710        C  0.18464611  0.00036560  0.63454508     0.00190
C711        C  0.17781007  0.51762626  0.59319366    -0.08380
C712        C  0.14467327  0.50917467  0.56818397    -0.05760
C713        C  0.11535841  0.48957080  0.58588549     0.00180
C714        C  0.11946007  0.97713920  0.62964549    -0.08290
C715        C  0.08653233  0.96106496  0.65280861     0.62090
H716        H  0.15959311  0.96748846  0.68360994     0.12780
H717        H  0.14023060  0.52087621  0.53573301     0.12790
C718        C  0.20235832  0.54722597  0.57532389     0.62320
F719        F  0.09713327  0.94965957  0.69489115    -0.22850
F720        F  0.07197218  0.93188381  0.62974439    -0.20180
F721        F  0.05857156  0.48666131  0.65588607    -0.19850
F722        F  0.22134458  0.03421082  0.54032253    -0.19900
F723        F  0.22799579  0.56091508  0.60669167    -0.20230
F724        F  0.17976938  0.57562585  0.56064236    -0.22900
C725        C  0.35935689  0.98354612  0.56543377    -0.05740
C726        C  0.39077995  0.00184230  0.58401249     0.00190
C727        C  0.39141196  0.51213515  0.62845920    -0.08380
C728        C  0.35841521  0.50745412  0.65140975    -0.05760
C729        C  0.32638194  0.98934817  0.63284255     0.00180
C730        C  0.32835837  0.97464696  0.58995968    -0.08290
C731        C  0.30020737  0.94806043  0.56906339     0.62090
H732        H  0.36000839  0.97418077  0.53185211     0.12780
H733        H  0.35738920  0.51876640  0.68390893     0.12790
C734        C  0.42641787  0.52830342  0.65129109     0.62320
F735        F  0.31939283  0.42029648  0.54997034    -0.22850
F736        F  0.27815497  0.46525042  0.53663353    -0.20180
F737        F  0.27736251  0.93255351  0.59916181    -0.19850
F738        F  0.43567694  0.55994141  0.63077336    -0.19900
F739        F  0.45614544  0.00442214  0.64968681    -0.20230
F740        F  0.42116809  0.03581957  0.69491965    -0.22900
C741        C  0.13553426  0.99086433  0.43490330    -0.05740
C742        C  0.10684426  0.51434833  0.41984181     0.00190
C743        C  0.10844002  0.53017552  0.37785475    -0.08380
C744        C  0.14068850  0.52436905  0.35391032    -0.05760
C745        C  0.16958574  0.00068094  0.36886270     0.00180
C746        C  0.16555718  0.98182857  0.40901266    -0.08290
C747        C  0.19035717  0.95049081  0.42455673     0.62090
H748        H  0.13314572  0.97758755  0.46630353     0.12780
H749        H  0.14359211  0.53859286  0.32329286     0.12790
C750        C  0.07667575  0.55349644  0.35883629     0.62320
F751        F  0.16883704  0.92437644  0.44396866    -0.22850
F752        F  0.21759621  0.46240831  0.45524926    -0.20180
F753        F  0.20735866  0.93410249  0.39024675    -0.19850
F754        F  0.07304950  0.58320503  0.38507373    -0.19900
F755        F  0.04324228  0.03424455  0.35685306    -0.20230
F756        F  0.08328874  0.56534880  0.31690671    -0.22900
C757        C  0.36235802  0.96017428  0.39893674    -0.05740
C758        C  0.37801226  0.99262241  0.41476243     0.00190
C759        C  0.35869870  0.52557519  0.40492547    -0.08380
C760        C  0.32480065  0.52448457  0.37896455    -0.05760
C761        C  0.30977027  0.99214640  0.36266617     0.00180
C762        C  0.32883650  0.95941476  0.37210491    -0.08290
C763        C  0.31373725  0.92395406  0.35391096     0.62090
H764        H  0.37674499  0.93542329  0.40738006     0.12780
H765        H  0.30908369  0.54892650  0.37171992     0.12790
C766        C  0.37179399  0.56165978  0.42374922     0.62320
F767        F  0.33593364  0.89515094  0.36800260    -0.22850
F768        F  0.31283665  0.92487886  0.30860540    -0.20180
F769        F  0.27770864  0.91809732  0.36733565    -0.19850
F770        F  0.40717671  0.57025443  0.41024311    -0.19900
F771        F  0.37249585  0.56022380  0.46888566    -0.20230
F772        F  0.34782833  0.58946114  0.41048806    -0.22900
O773        O  0.91894623  0.47163657  0.47489645    -0.80090
O774        O  0.57762026  0.03339708  0.48429598    -0.80120
O775        O  0.98929352  0.06758524  0.43742059    -0.80130
O776        O  0.54557710  0.42687801  0.46317621    -0.80070
O777        O  0.52852370  0.08938790  0.48852968    -0.80190
O778        O  0.98598788  0.44045273  0.44866516    -0.80110
O779        O  0.54580663  0.49737909  0.43825460    -0.80090
O780        O  0.94077895  0.01184483  0.43236340    -0.80130
C781        C  0.91434746  0.49125619  0.44118509     1.09600
C782        C  0.57406166  0.01728010  0.44734855     1.09480
C783        C  0.01179634  0.09202011  0.45079890     1.09620
C784        C  0.51479379  0.42010044  0.44196515     1.09500
O785        O  0.95479460  0.41927754  0.52299082    -0.80100
O786        O  0.50342417  0.06329321  0.57111017    -0.80170
O787        O  0.91855201  0.02751065  0.52232633    -0.80110
O788        O  0.57682005  0.47408340  0.52224814    -0.80090
O789        O  0.55290664  0.00822175  0.57060661    -0.80140
O790        O  0.95066446  0.48588548  0.56053362    -0.80110
O791        O  0.51335542  0.43585292  0.54015363    -0.80060
O792        O  0.96395746  0.08692184  0.52165955    -0.80130
Co793      Co  0.97022488  0.46593307  0.50664561     1.51530
Co794      Co  0.53836644  0.04621141  0.52801557     1.51690
Co795      Co  0.95540250  0.04619309  0.47883467     1.51570
Co796      Co  0.52714801  0.46939980  0.48744386     1.51470
O797        O  0.99749034  0.51342393  0.50128711    -1.42030
C798        C  0.48585921  0.41324390  0.54393128     1.09520
C799        C  0.98063479  0.08795697  0.55939633     1.09610
C800        C  0.92274849  0.50691900  0.55583160     1.09550
C801        C  0.57930951  0.98844088  0.55976692     1.09520
C802        C  0.01358391  0.22180821  0.34472682     0.03170
C803        C  0.01180233  0.25494124  0.36649764    -0.12980
C804        C  0.01181633  0.28730524  0.34277761     0.00670
C805        C  0.01134181  0.28646680  0.29695869    -0.11500
C806        C  0.01349017  0.25355326  0.27496353     0.03160
C807        C  0.01596536  0.22138068  0.29901934    -0.10930
H808        H  0.01081100  0.25556729  0.40190869     0.08700
H809        H  0.01029410  0.31145148  0.27849372     0.06290
H810        H  0.01896613  0.19607650  0.28206371     0.06130
C811        C  0.77222627  0.49344354  0.33933828     0.03170
C812        C  0.74009921  0.99806661  0.36342540    -0.12980
C813        C  0.70377477  0.49757928  0.34261254     0.00670
C814        C  0.70040445  0.49559386  0.29648713    -0.11500
C815        C  0.73264859  0.49356558  0.27199524     0.03160
C816        C  0.76849005  0.49188451  0.29353518    -0.10930
H817        H  0.74354311  0.00160536  0.39856474     0.08760
H818        H  0.67279754  0.49548377  0.27950908     0.06290
H819        H  0.79339982  0.48976719  0.27468356     0.06130
C820        C  0.79103468  0.48970780  0.65763348     0.03170
C821        C  0.75565957  0.99558086  0.63569292    -0.12980
C822        C  0.72257942  0.49942167  0.65859530     0.00670
C823        C  0.72566203  0.49892661  0.70469338    -0.11500
C824        C  0.76044984  0.49265503  0.72716671     0.03160
C825        C  0.79280921  0.48746384  0.70376187    -0.10930
H826        H  0.75378899  0.99702967  0.60038497     0.08760
H827        H  0.70096319  0.50307780  0.72338284     0.06290
H828        H  0.81935670  0.48211463  0.72173995     0.06130
C829        C  0.98265872  0.22081434  0.65792161     0.03170
C830        C  0.98428040  0.25251335  0.63290890    -0.12980
C831        C  0.98682882  0.28616245  0.65363355     0.00670
C832        C  0.98913894  0.28794102  0.69944681    -0.11500
C833        C  0.98626511  0.25658236  0.72456514     0.03160
C834        C  0.98233432  0.22309690  0.70373415    -0.10930
H835        H  0.98353418  0.25100564  0.59742580     0.08760
H836        H  0.99228685  0.31382661  0.71554735     0.06290
H837        H  0.98004660  0.19882016  0.72318879     0.06130
C838        C  0.72953329  0.45841261  0.15633707     0.03170
C839        C  0.73094756  0.45956527  0.20216383    -0.12980
C840        C  0.72906030  0.49255147  0.22379464     0.00670
C841        C  0.72532690  0.02454036  0.19936668    -0.11500
C842        C  0.72465935  0.02384568  0.15318801     0.03160
C843        C  0.72769065  0.49053755  0.13200239    -0.10930
H844        H  0.73339828  0.43478851  0.22095402     0.08760
H845        H  0.72405270  0.05005533  0.21634213     0.06290
H846        H  0.72938282  0.48943776  0.09677394     0.06130
O847        O  0.76085840  0.30756449  0.04819012    -0.80090
O848        O  0.72109312  0.15707678  0.01372124    -0.80120
O849        O  0.69991561  0.24766577  0.06118291    -0.80130
O850        O  0.80836415  0.23710034  0.06943148    -0.80070
O851        O  0.67020781  0.21145356  0.01434982    -0.80190
O852        O  0.82706924  0.27725182  0.02420214    -0.80110
O853        O  0.75832456  0.18166190  0.06477178    -0.80090
O854        O  0.70007455  0.31828184  0.03746096    -0.80130
C855        C  0.73138589  0.32637482  0.05673192     1.09600
C856        C  0.73673837  0.15635176  0.05237710     1.09480
C857        C  0.67187468  0.22750000  0.05116635     1.09620
C858        C  0.83152827  0.26140021  0.06069134     1.09500
O859        O  0.79889330  0.25862527  0.93940085    -0.80100
O860        O  0.69397284  0.23698529  0.92937581    -0.80170
O861        O  0.73267019  0.31106117  0.96062063    -0.80110
O862        O  0.78539623  0.16019057  0.98112566    -0.80090
O863        O  0.74653387  0.18257143  0.93013310    -0.80140
O864        O  0.79214735  0.32672806  0.97302556    -0.80110
O865        O  0.83092131  0.21927168  0.98100612    -0.80060
O866        O  0.67058298  0.27167862  0.97760150    -0.80130
Co867      Co  0.77706924  0.28050626  0.99110616     1.51530
Co868      Co  0.71047365  0.19947667  0.97244150     1.51690
Co869      Co  0.71950469  0.27645551  0.01308081     1.51570
Co870      Co  0.79313422  0.20183241  0.02350879     1.51470
O871        O  0.75051175  0.23345061  0.99908032    -1.42030
C872        C  0.82716677  0.23801649  0.94578031     1.09520
C873        C  0.66806496  0.25791762  0.93975680     1.09610
C874        C  0.76015289  0.33331770  0.95465048     1.09550
C875        C  0.76992766  0.15863457  0.94254960     1.09520
C876        C  0.54168265  0.24245970  0.15817632     0.03170
C877        C  0.54201504  0.23975819  0.20405123    -0.12980
C878        C  0.01178645  0.25293213  0.22674081     0.00670
C879        C  0.97957281  0.26579348  0.20344933    -0.11500
C880        C  0.97614229  0.26367097  0.15749347     0.03160
C881        C  0.00767839  0.25230692  0.13503133    -0.10930
H882        H  0.56606861  0.22840874  0.22228877     0.08760
H883        H  0.95630027  0.27581084  0.22146988     0.06290
H884        H  0.00584361  0.25126397  0.09959455     0.06130
C885        C  0.75499871  0.45979728  0.84351232     0.03170
C886        C  0.75433125  0.46012695  0.79767420    -0.12980
C887        C  0.76269996  0.49181587  0.77540120     0.00670
C888        C  0.77238225  0.02301179  0.79913961    -0.11500
C889        C  0.77044690  0.02393783  0.84522202     0.03160
C890        C  0.76016108  0.49212498  0.86675389    -0.10930
H891        H  0.74837940  0.43558370  0.77946906     0.08760
H892        H  0.78055003  0.04673926  0.78125063     0.06290
H893        H  0.75744584  0.49191436  0.90182350     0.06130
C894        C  0.52499321  0.27144143  0.84055329     0.03170
C895        C  0.52169125  0.27071619  0.79458475    -0.12980
C896        C  0.98838800  0.25892459  0.77266336     0.00670
C897        C  0.95766689  0.24863570  0.79665516    -0.11500
C898        C  0.95945052  0.25130904  0.84264898     0.03160
C899        C  0.99326611  0.26314741  0.86435164    -0.10930
H900        H  0.54590509  0.27726532  0.77586172     0.08760
H901        H  0.93213475  0.23905737  0.77935370     0.06290
H902        H  0.99540234  0.26467524  0.89975147     0.06130
C903        C  0.79058615  0.09478717  0.93523792    -0.05740
C904        C  0.77539124  0.12594121  0.91479641     0.00190
C905        C  0.76388724  0.12387786  0.86956066    -0.08380
C906        C  0.76205961  0.09016551  0.84906191    -0.05760
C907        C  0.77616841  0.05876021  0.86965802     0.00180
C908        C  0.79350714  0.06191266  0.91271508    -0.08290
C909        C  0.81627886  0.03231737  0.93604226     0.62090
H910        H  0.80088475  0.09609171  0.96926787     0.12780
H911        H  0.74865441  0.08837403  0.81648333     0.12790
C912        C  0.75496008  0.15678997  0.84182125     0.62320
F913        F  0.84774414  0.04694400  0.95817958    -0.22850
F914        F  0.82921996  0.00721601  0.90720349    -0.20180
F915        F  0.79448934  0.01548134  0.96626902    -0.19850
F916        F  0.78281847  0.18216164  0.84986157    -0.19900
F917        F  0.72047138  0.17035572  0.85165599    -0.20230
F918        F  0.75360807  0.14920936  0.79736587    -0.22900
C919        C  0.78785298  0.37488092  0.90187182    -0.05740
C920        C  0.75599113  0.36492099  0.92451673     0.00190
C921        C  0.72306884  0.38674593  0.91995393    -0.08380
C922        C  0.72315289  0.41681495  0.89161393    -0.05760
C923        C  0.75464999  0.42541987  0.86789890     0.00180
C924        C  0.78737348  0.40380033  0.87230616    -0.08290
C925        C  0.82196162  0.41144700  0.84636908     0.62090
H926        H  0.81374098  0.36006670  0.90794261     0.12780
H927        H  0.69895127  0.43452597  0.88847899     0.12790
C928        C  0.68933517  0.38061935  0.94746370     0.62320
F929        F  0.85140724  0.38822587  0.85761225    -0.22850
F930        F  0.83456582  0.44619568  0.85403369    -0.20180
F931        F  0.81292024  0.40723857  0.80208185    -0.19850
F932        F  0.70095063  0.38168392  0.99131657    -0.19900
F933        F  0.67294923  0.34772799  0.93751551    -0.20230
F934        F  0.66195751  0.40679149  0.94023117    -0.22900
C935        C  0.89670994  0.28542969  0.07142468    -0.05740
C936        C  0.86574400  0.26850038  0.08999357     0.00190
C937        C  0.87040335  0.25563399  0.13381419    -0.08380
C938        C  0.90695888  0.25394887  0.15355251    -0.05760
C939        C  0.93832678  0.26944442  0.13439580     0.00180
C940        C  0.93234999  0.28796096  0.09385093    -0.08290
C941        C  0.96194130  0.31094422  0.07298880     0.62090
H942        H  0.89327194  0.29676379  0.03869667     0.12780
H943        H  0.91084651  0.24017842  0.18481412     0.12790
C944        C  0.83874698  0.24321044  0.16182140     0.62320
F945        F  0.99111871  0.32059020  0.10246620    -0.22850
F946        F  0.97628809  0.29245991  0.03837044    -0.20180
F947        F  0.94560091  0.34250980  0.05704580    -0.19850
F948        F  0.83918860  0.20611438  0.16430059    -0.19900
F949        F  0.80352617  0.25482513  0.14647160    -0.20230
F950        F  0.84454809  0.25682987  0.20381755    -0.22900
C951        C  0.57352907  0.21426081  0.09638695    -0.05740
C952        C  0.57663550  0.23571947  0.13417738     0.00190
C953        C  0.61175524  0.25283448  0.14547266    -0.08380
C954        C  0.64242582  0.24663546  0.11919943    -0.05760
C955        C  0.63895613  0.22674192  0.08004106     0.00180
C956        C  0.60334675  0.21049933  0.06804865    -0.08290
C957        C  0.59547954  0.19065693  0.02492567     0.62090
H958        H  0.54664320  0.20145185  0.08829277     0.12780
H959        H  0.66936497  0.25886504  0.12852481     0.12790
C960        C  0.61726573  0.27928079  0.18339368     0.62320
F961        F  0.55899562  0.17732193  0.02077364    -0.22850
F962        F  0.61978414  0.16178204  0.02228706    -0.20180
F963        F  0.59985685  0.21394952  0.99010389    -0.19850
F964        F  0.62220800  0.26077065  0.22258399    -0.19900
F965        F  0.58664685  0.30214090  0.18490775    -0.20230
F966        F  0.64887544  0.30065189  0.17906261    -0.22900
C967        C  0.89104376  0.25909877  0.85138565    -0.05740
C968        C  0.92515954  0.24346004  0.86719521     0.00190
C969        C  0.92549991  0.22250736  0.90611292    -0.08380
C970        C  0.89283205  0.22153207  0.93006076    -0.05760
C971        C  0.85884396  0.23834487  0.91525787     0.00180
C972        C  0.85755877  0.25614947  0.87380330    -0.08290
C973        C  0.82193735  0.27307298  0.85302702     0.62090
H974        H  0.89110387  0.27499342  0.82161566     0.12780
H975        H  0.89422606  0.20732027  0.96114217     0.12790
C976        C  0.95921125  0.20068283  0.92383415     0.62320
F977        F  0.82652526  0.28413036  0.81028035    -0.22850
F978        F  0.81242119  0.30272991  0.87669789    -0.20180
F979        F  0.79244770  0.24887922  0.85213478    -0.19850
F980        F  0.97813526  0.21955382  0.95727911    -0.19900
F981        F  0.94712213  0.16823410  0.94059090    -0.20230
F982        F  0.98387292  0.19264248  0.89175988    -0.22900
C983        C  0.60726791  0.28992584  0.92318427    -0.05740
C984        C  0.63366030  0.26425658  0.91018456     0.00190
C985        C  0.62494392  0.24399888  0.87141522    -0.08380
C986        C  0.58976718  0.24885372  0.84909450    -0.05760
C987        C  0.56314716  0.27354644  0.86295873     0.00180
C988        C  0.57265703  0.29572545  0.89953962    -0.08290
C989        C  0.54787386  0.32594069  0.91475545     0.62090
H990        H  0.61358902  0.30584172  0.95235640     0.12780
H991        H  0.58192148  0.23189284  0.82129344     0.12790
C992        C  0.65140229  0.21614710  0.85403144     0.62320
F993        F  0.56943341  0.35674384  0.92133408    -0.22850
F994        F  0.53293110  0.31623457  0.95398838    -0.20180
F995        F  0.51873059  0.33431392  0.88460607    -0.19850
F996        F  0.65695718  0.18892824  0.88472491    -0.19900
F997        F  0.68527195  0.23246281  0.84528082    -0.20230
F998        F  0.63725015  0.20048087  0.81543665    -0.22900
C999        C  0.70255719  0.10006843  0.07083948    -0.05740
C1000       C  0.73221402  0.12423487  0.08149140     0.00190
C1001       C  0.75777029  0.11586264  0.11786748    -0.08380
C1002       C  0.75404797  0.08274462  0.13960625    -0.05760
C1003       C  0.72525571  0.05825366  0.12794867     0.00180
C1004       C  0.69810513  0.06755103  0.09398213    -0.08290
C1005       C  0.66410606  0.04392168  0.08240962     0.62090
H1006       H  0.68277690  0.10666832  0.04377458     0.12780
H1007       H  0.77406436  0.07535859  0.16612479     0.12790
C1008       C  0.78897973  0.14124453  0.13445990     0.62320
F1009       F  0.63667015  0.06247101  0.05756992    -0.22850
F1010       F  0.64804872  0.03213687  0.12017165    -0.20180
F1011       F  0.67488923  0.01468507  0.05828713    -0.19850
F1012       F  0.77311945  0.17325186  0.14729654    -0.19900
F1013       F  0.81387714  0.14749065  0.10192275    -0.20230
F1014       F  0.80964558  0.12746682  0.17045097    -0.22900
C1015       C  0.69821467  0.37317874  0.09738885    -0.05740
C1016       C  0.73301674  0.35757423  0.08773322     0.00190
C1017       C  0.76703259  0.37435130  0.10442556    -0.08380
C1018       C  0.76462801  0.40722757  0.12704075    -0.05760
C1019       C  0.72987696  0.42336006  0.13385559     0.00180
C1020       C  0.69607557  0.40580879  0.12006272    -0.08290
C1021       C  0.65790634  0.42189194  0.12882439     0.62090
H1022       H  0.67224676  0.36015372  0.08591311     0.12780
H1023       H  0.78996234  0.42106159  0.13917907     0.12790
C1024       C  0.80572360  0.35821525  0.09901205     0.62320
F1025       F  0.62837940  0.39993536  0.11398182    -0.22850
F1026       F  0.65389347  0.45469728  0.10771262    -0.20180
F1027       F  0.65513748  0.42684537  0.17339468    -0.19850
F1028       F  0.81321230  0.35685998  0.05513565    -0.19900
F1029       F  0.80686999  0.32404975  0.11687392    -0.20230
F1030       F  0.83417717  0.37812771  0.12028566    -0.22900
C1031       C  0.95652152  0.37306729  0.59669690    -0.05740
C1032       C  0.98881589  0.38183557  0.57412224     0.00190
C1033       C  0.52068041  0.35859890  0.57774911    -0.08380
C1034       C  0.51934966  0.32827863  0.60545412    -0.05760
C1035       C  0.98689701  0.31961499  0.62738837     0.00180
C1036       C  0.95467578  0.34185566  0.62254762    -0.08290
C1037       C  0.91801803  0.33177301  0.64305677     0.62090
H1038       H  0.93219387  0.39060356  0.59311079     0.12780
H1039       H  0.54319464  0.31015592  0.60904700     0.12790
C1040       C  0.55425863  0.36317695  0.54942798     0.62320
F1041       F  0.88915477  0.35542085  0.63102439    -0.22850
F1042       F  0.92296268  0.33216795  0.68824367    -0.20180
F1043       F  0.90690380  0.29767150  0.62953278    -0.19850
F1044       F  0.57179807  0.39587108  0.55716817    -0.19900
F1045       F  0.54194243  0.36106513  0.50590459    -0.20230
F1046       F  0.58105478  0.33656450  0.55733775    -0.22900
C1047       C  0.94860321  0.17582268  0.61101116    -0.05740
C1048       C  0.98145576  0.18537219  0.63586801     0.00190
C1049       C  0.51313336  0.16228370  0.63704916    -0.08380
C1050       C  0.51062109  0.12996774  0.61331975    -0.05760
C1051       C  0.97816285  0.12060514  0.58725221     0.00180
C1052       C  0.94633838  0.14387694  0.58620915    -0.08290
C1053       C  0.91023731  0.13565421  0.55897923     0.62090
H1054       H  0.92498553  0.19427570  0.61030823     0.12780
H1055       H  0.53492040  0.11238900  0.61353191     0.12790
C1056       C  0.55006392  0.17250840  0.66150214     0.62320
F1057       F  0.88130605  0.15875987  0.56867624    -0.22850
F1058       F  0.89833499  0.10093513  0.56715926    -0.20180
F1059       F  0.91641039  0.13947181  0.51488642    -0.19850
F1060       F  0.54513158  0.17409237  0.70601578    -0.19900
F1061       F  0.56208451  0.20572633  0.64707837    -0.20230
F1062       F  0.57834226  0.14780143  0.65487010    -0.22900
C1063       C  0.54659784  0.36900428  0.40707952    -0.05740
C1064       C  0.01291795  0.38857871  0.41130567     0.00190
C1065       C  0.97904300  0.37527132  0.38985880    -0.08380
C1066       C  0.98002994  0.34228892  0.36721703    -0.05760
C1067       C  0.01320644  0.32219420  0.36582391     0.00180
C1068       C  0.54723012  0.33582569  0.38525794    -0.08290
C1069       C  0.58399906  0.31513358  0.38320626     0.62090
H1070       H  0.57262351  0.37913906  0.42254361     0.12780
H1071       H  0.95459632  0.33127492  0.35120376     0.12790
C1072       C  0.94176592  0.39485641  0.39119904     0.62320
F1073       F  0.61437964  0.33422540  0.40164569    -0.22850
F1074       F  0.59109855  0.30803155  0.33999197    -0.20180
F1075       F  0.58152698  0.28298892  0.40581206    -0.19850
F1076       F  0.94558028  0.42951268  0.37531391    -0.19900
F1077       F  0.93056581  0.39562006  0.43384511    -0.20230
F1078       F  0.91350537  0.37810734  0.36567085    -0.22900
C1079       C  0.98550738  0.13136406  0.39133497    -0.05740
C1080       C  0.01463260  0.12537238  0.42375588     0.00190
C1081       C  0.54364330  0.15170811  0.42994203    -0.08380
C1082       C  0.54279563  0.18214715  0.40222706    -0.05760
C1083       C  0.01351619  0.18782901  0.37021596     0.00180
C1084       C  0.98375192  0.16253926  0.36533178    -0.08290
C1085       C  0.94918205  0.16905945  0.33460430     0.62090
H1086       H  0.96311873  0.11172088  0.38705659     0.12780
H1087       H  0.56469070  0.20242696  0.40589573     0.12790
C1088       C  0.57511809  0.14851606  0.46559208     0.62320
F1089       F  0.92092011  0.14411322  0.34095984    -0.22850
F1090       F  0.95868720  0.16659345  0.29147362    -0.20180
F1091       F  0.93457281  0.20286173  0.34197909    -0.19850
F1092       F  0.59380257  0.11612325  0.46199208    -0.19900
F1093       F  0.56016856  0.15075804  0.50639325    -0.20230
F1094       F  0.60154730  0.17578452  0.46285085    -0.22900
C1095       C  0.65497959  0.48049515  0.65204688    -0.05740
C1096       C  0.68464341  0.50036498  0.63454445     0.00190
C1097       C  0.67781245  0.01762750  0.59319473    -0.08380
C1098       C  0.64467575  0.00917584  0.56818489    -0.05760
C1099       C  0.61536128  0.98957107  0.58588590     0.00180
C1100       C  0.61945696  0.47713961  0.62964540    -0.08290
C1101       C  0.58652892  0.46106641  0.65280895     0.62090
H1102       H  0.65958982  0.46748904  0.68361004     0.12780
H1103       H  0.64023284  0.02087793  0.53573426     0.12790
C1104       C  0.70236027  0.04722783  0.57532565     0.62320
F1105       F  0.59712975  0.44966124  0.69489162    -0.22850
F1106       F  0.57196791  0.43188533  0.62974527    -0.20180
F1107       F  0.55857429  0.98665916  0.65588593    -0.19850
F1108       F  0.72134256  0.53420807  0.54032119    -0.19900
F1109       F  0.72799768  0.06091668  0.60669369    -0.20230
F1110       F  0.67977094  0.07562771  0.56064498    -0.22900
C1111       C  0.85935438  0.48354475  0.56543400    -0.05740
C1112       C  0.89077718  0.50184139  0.58401261     0.00190
C1113       C  0.89141489  0.01213584  0.62845917    -0.08380
C1114       C  0.85841812  0.00745503  0.65140975    -0.05760
C1115       C  0.82637924  0.48934692  0.63284259     0.00180
C1116       C  0.82835590  0.47464546  0.58995989    -0.08290
C1117       C  0.80020517  0.44805859  0.56906379     0.62090
H1118       H  0.86000604  0.47417920  0.53185243     0.12780
H1119       H  0.85739229  0.01876712  0.68390905     0.12790
C1120       C  0.92642102  0.02830364  0.65129114     0.62320
F1121       F  0.81939473  0.92029842  0.54996934    -0.22850
F1122       F  0.77815710  0.96525270  0.53663356    -0.20180
F1123       F  0.77736020  0.43255187  0.59916224    -0.19850
F1124       F  0.93568051  0.05994157  0.63077357    -0.19900
F1125       F  0.95614260  0.50442226  0.64968690    -0.20230
F1126       F  0.92116483  0.53581942  0.69491957    -0.22900
C1127       C  0.63552995  0.49086249  0.43490176    -0.05740
C1128       C  0.60684732  0.01434828  0.41984202     0.00190
C1129       C  0.60844205  0.03017373  0.37785388    -0.08380
C1130       C  0.64069070  0.02436766  0.35390964    -0.05760
C1131       C  0.66958238  0.50068067  0.36886222     0.00180
C1132       C  0.66555273  0.48182679  0.40901088    -0.08290
C1133       C  0.69035152  0.45048763  0.42455309     0.62090
H1134       H  0.63314059  0.47758448  0.46630108     0.12780
H1135       H  0.64359346  0.03859046  0.32329134     0.12790
C1136       C  0.57667647  0.05349241  0.35883401     0.62320
F1137       F  0.66883049  0.42437335  0.44396389    -0.22850
F1138       F  0.71760112  0.96241349  0.45525256    -0.20180
F1139       F  0.70735205  0.43409993  0.39024198    -0.19850
F1140       F  0.57304839  0.08320178  0.38506970    -0.19900
F1141       F  0.54324044  0.53425032  0.35685440    -0.20230
F1142       F  0.58328888  0.06534358  0.31690377    -0.22900
C1143       C  0.86235486  0.46017342  0.39893791    -0.05740
C1144       C  0.87800930  0.49262179  0.41476257     0.00190
C1145       C  0.85870168  0.02557593  0.40492591    -0.08380
C1146       C  0.82480382  0.02448567  0.37896459    -0.05760
C1147       C  0.80976690  0.49214507  0.36266712     0.00180
C1148       C  0.82883307  0.45941352  0.37210655    -0.08290
C1149       C  0.81373343  0.42395256  0.35391391     0.62090
H1150       H  0.87674187  0.43542249  0.40738172     0.12780
H1151       H  0.80908679  0.04892764  0.37172055     0.12790
C1152       C  0.87179664  0.06166022  0.42375085     0.62320
F1153       F  0.83593012  0.39514964  0.36800559    -0.22850
F1154       F  0.81283174  0.42487660  0.30860829    -0.20180
F1155       F  0.77770519  0.41809614  0.36733996    -0.19850
F1156       F  0.90717981  0.07025500  0.41024628    -0.19900
F1157       F  0.87249722  0.06022358  0.46888720    -0.20230
F1158       F  0.84783142  0.08946184  0.41048939    -0.22900
O1159       O  0.91894894  0.97163693  0.47489646    -0.80090
O1160       O  0.57761719  0.53339729  0.48429577    -0.80120
O1161       O  0.98929008  0.56758568  0.43742094    -0.80130
O1162       O  0.54557978  0.92687771  0.46317668    -0.80070
O1163       O  0.52852047  0.58938789  0.48853011    -0.80190
O1164       O  0.98599066  0.94045291  0.44866532    -0.80110
O1165       O  0.54580976  0.99737876  0.43825493    -0.80090
O1166       O  0.94077578  0.51184489  0.43236354    -0.80130
C1167       C  0.91435037  0.99125649  0.44118501     1.09600
C1168       C  0.57405857  0.51728037  0.44734828     1.09480
C1169       C  0.01179308  0.59202038  0.45079944     1.09620
C1170       C  0.51479649  0.92010042  0.44196540     1.09500
O1171       O  0.95479705  0.91927782  0.52299082    -0.80100
O1172       O  0.50342113  0.56329277  0.57111040    -0.80170
O1173       O  0.91854895  0.52751019  0.52232655    -0.80110
O1174       O  0.57682289  0.97408323  0.52224869    -0.80090
O1175       O  0.55290373  0.50822148  0.57060639    -0.80140
O1176       O  0.95066712  0.98588582  0.56053362    -0.80110
O1177       O  0.51335794  0.93585288  0.54015397    -0.80060
O1178       O  0.96395426  0.58692158  0.52166013    -0.80130
Co1179     Co  0.97022759  0.96593328  0.50664569     1.51530
Co1180     Co  0.53836338  0.54621129  0.52801561     1.51690
Co1181     Co  0.95539929  0.54619302  0.47883498     1.51570
Co1182     Co  0.52715088  0.96939966  0.48744423     1.51470
O1183       O  0.99749333  0.01342399  0.50128723    -1.42030
C1184       C  0.48586157  0.91324400  0.54393146     1.09520
C1185       C  0.98063184  0.58795664  0.55939678     1.09610
C1186       C  0.92275134  0.00691955  0.55583148     1.09550
C1187       C  0.57930664  0.48844078  0.55976651     1.09520
C1188       C  0.01358314  0.72180833  0.34472714     0.03170
C1189       C  0.01180241  0.75494153  0.36649773    -0.12980
C1190       C  0.01181744  0.78730540  0.34277753     0.00670
C1191       C  0.01134300  0.78646675  0.29695862    -0.11500
C1192       C  0.01349048  0.75355302  0.27496367     0.03160
C1193       C  0.01596476  0.72138051  0.29901968    -0.10930
H1194       H  0.01081092  0.75556781  0.40190875     0.08700
H1195       H  0.01029595  0.81145135  0.27849349     0.06290
H1196       H  0.01896506  0.69607620  0.28206420     0.06130
C1197       C  0.77222954  0.99344505  0.33933758     0.03170
C1198       C  0.74009578  0.49806509  0.36342581    -0.12980
C1199       C  0.70377801  0.99757975  0.34261265     0.00670
C1200       C  0.70040735  0.99559356  0.29648729    -0.11500
C1201       C  0.73265130  0.99356574  0.27199501     0.03160
C1202       C  0.76849296  0.99188551  0.29353453    -0.10930
H1203       H  0.74353938  0.50160328  0.39856526     0.08760
H1204       H  0.67280034  0.99548261  0.27950950     0.06290
H1205       H  0.79340258  0.98976837  0.27468263     0.06130
C1206       C  0.79103748  0.98970901  0.65763367     0.03170
C1207       C  0.75565684  0.49557953  0.63569254    -0.12980
C1208       C  0.72258216  0.99942242  0.65859584     0.00670
C1209       C  0.72566484  0.99892687  0.70469390    -0.11500
C1210       C  0.76045274  0.99265540  0.72716706     0.03160
C1211       C  0.79281211  0.98746467  0.70376206    -0.10930
H1212       H  0.75378636  0.49702789  0.60038456     0.08760
H1213       H  0.70096597  0.00307762  0.72338345     0.06290
H1214       H  0.81935967  0.98211545  0.72174000     0.06130
C1215       C  0.98265821  0.72081437  0.65792145     0.03170
C1216       C  0.98428046  0.75251334  0.63290874    -0.12980
C1217       C  0.98682949  0.78616242  0.65363340     0.00670
C1218       C  0.98913966  0.78794097  0.69944667    -0.11500
C1219       C  0.98626523  0.75658238  0.72456497     0.03160
C1220       C  0.98233382  0.72309698  0.70373398    -0.10930
H1221       H  0.98353419  0.75100562  0.59742563     0.08760
H1222       H  0.99228804  0.81382651  0.71554721     0.06290
H1223       H  0.98004565  0.69882028  0.72318862     0.06130
C1224       C  0.72953475  0.95841249  0.15633693     0.03170
C1225       C  0.73094948  0.95956522  0.20216370    -0.12980
C1226       C  0.72906257  0.99255147  0.22379445     0.00670
C1227       C  0.72532476  0.52454040  0.19936690    -0.11500
C1228       C  0.72465770  0.52384580  0.15318824     0.03160
C1229       C  0.72769198  0.99053740  0.13200218    -0.10930
H1230       H  0.73340031  0.93478849  0.22095394     0.08760
H1231       H  0.72405032  0.55005533  0.21634238     0.06290
H1232       H  0.72938380  0.98943755  0.09677368     0.06130
O1233       O  0.76085894  0.80756414  0.04819012    -0.80090
O1234       O  0.72109296  0.65707668  0.01372110    -0.80120
O1235       O  0.69991576  0.74766588  0.06118272    -0.80130
O1236       O  0.80836448  0.73709976  0.06943138    -0.80070
O1237       O  0.67020792  0.71145367  0.01434964    -0.80190
O1238       O  0.82706966  0.77725120  0.02420207    -0.80110
O1239       O  0.75832463  0.68166151  0.06477163    -0.80090
O1240       O  0.70007520  0.81828195  0.03746072    -0.80130
C1241       C  0.73138656  0.82637470  0.05673180     1.09600
C1242       C  0.73673816  0.65635158  0.05237699     1.09480
C1243       C  0.67187482  0.72750011  0.05116616     1.09620
C1244       C  0.83152865  0.76139958  0.06069126     1.09500
O1245       O  0.79889350  0.75862486  0.93940077    -0.80100
O1246       O  0.69397311  0.73698535  0.92937568    -0.80170
O1247       O  0.73267087  0.81106105  0.96062042    -0.80110
O1248       O  0.78539609  0.66019017  0.98112545    -0.80090
O1249       O  0.74653389  0.68257133  0.93013296    -0.80140
O1250       O  0.79214807  0.82672761  0.97302564    -0.80110
O1251       O  0.83092144  0.71927113  0.98100588    -0.80060
O1252       O  0.67058335  0.77167878  0.97760131    -0.80130
Co1253     Co  0.77706965  0.78050589  0.99110615     1.51530
Co1254     Co  0.71047372  0.69947664  0.97244136     1.51690
Co1255     Co  0.71950508  0.77645548  0.01308061     1.51570
Co1256     Co  0.79313432  0.70183195  0.02350861     1.51470
O1257       O  0.75051194  0.73345037  0.99908027    -1.42030
C1258       C  0.82716693  0.73801602  0.94578014     1.09520
C1259       C  0.66806526  0.75791772  0.93975665     1.09610
C1260       C  0.76015373  0.83331742  0.95465038     1.09550
C1261       C  0.76992752  0.65863432  0.94254938     1.09520
C1262       C  0.54168293  0.74245941  0.15817645     0.03170
C1263       C  0.54201532  0.73975788  0.20405136    -0.12980
C1264       C  0.01178669  0.75293170  0.22674097     0.00670
C1265       C  0.97957307  0.76579309  0.20344949    -0.11500
C1266       C  0.97614257  0.76367061  0.15749365     0.03160
C1267       C  0.00767869  0.75230659  0.13503151    -0.10930
H1268       H  0.56606890  0.72840846  0.22228891     0.08760
H1269       H  0.95630054  0.77581049  0.22147004     0.06290
H1270       H  0.00584392  0.75126375  0.09959474     0.06130
C1271       C  0.75500123  0.95979726  0.84351254     0.03170
C1272       C  0.75433418  0.96012700  0.79767442    -0.12980
C1273       C  0.76270291  0.99181600  0.77540158     0.00670
C1274       C  0.77237972  0.52301163  0.79913908    -0.11500
C1275       C  0.77044479  0.52393775  0.84522155     0.03160
C1276       C  0.76016327  0.99212497  0.86675421    -0.10930
H1277       H  0.74838252  0.93558378  0.77946917     0.08760
H1278       H  0.78054764  0.54673897  0.78124995     0.06290
H1279       H  0.75744772  0.99191430  0.90182377     0.06130
C1280       C  0.52499339  0.77144129  0.84055328     0.03170
C1281       C  0.52169144  0.77071612  0.79458474    -0.12980
C1282       C  0.98838813  0.75892458  0.77266320     0.00670
C1283       C  0.95766698  0.74863579  0.79665500    -0.11500
C1284       C  0.95945063  0.75130907  0.84264883     0.03160
C1285       C  0.99326626  0.76314737  0.86435148    -0.10930
H1286       H  0.54590529  0.77726525  0.77586173     0.08760
H1287       H  0.93213481  0.73905754  0.77935354     0.06290
H1288       H  0.99540250  0.76467518  0.89975131     0.06130
C1289       C  0.79058527  0.59478672  0.93523753    -0.05740
C1290       C  0.77539083  0.62594099  0.91479610     0.00190
C1291       C  0.76388697  0.62387790  0.86956031    -0.08380
C1292       C  0.76205869  0.59016559  0.84906149    -0.05760
C1293       C  0.77616697  0.55876006  0.86965753     0.00180
C1294       C  0.79350587  0.56191225  0.91271455    -0.08290
C1295       C  0.81627749  0.53231677  0.93604147     0.62090
H1296       H  0.80088390  0.59609108  0.96926748     0.12780
H1297       H  0.74865346  0.58837439  0.81648290     0.12790
C1298       C  0.75496095  0.65679024  0.84182089     0.62320
F1299       F  0.84774310  0.54694315  0.95817840    -0.22850
F1300       F  0.82921808  0.50721526  0.90720256    -0.20180
F1301       F  0.79448810  0.51548096  0.96626854    -0.19850
F1302       F  0.78282007  0.68216114  0.84986153    -0.19900
F1303       F  0.72047258  0.67035696  0.85165527    -0.20230
F1304       F  0.75360905  0.64920965  0.79736550    -0.22900
C1305       C  0.78785454  0.87488064  0.90187223    -0.05740
C1306       C  0.75599237  0.86492074  0.92451660     0.00190
C1307       C  0.72307018  0.88674580  0.91995336    -0.08380
C1308       C  0.72315468  0.91681491  0.89161351    -0.05760
C1309       C  0.75465213  0.92541982  0.86789905     0.00180
C1310       C  0.78737551  0.90380017  0.87230674    -0.08290
C1311       C  0.82196403  0.91144685  0.84637034     0.62090
H1312       H  0.81374243  0.86006629  0.90794330     0.12780
H1313       H  0.69895313  0.93452600  0.88847825     0.12790
C1314       C  0.68933611  0.88061917  0.94746248     0.62320
F1315       F  0.85140946  0.88822561  0.85761385    -0.22850
F1316       F  0.83456825  0.94619548  0.85403540    -0.20180
F1317       F  0.81292320  0.90723865  0.80208296    -0.19850
F1318       F  0.70095100  0.88168351  0.99131554    -0.19900
F1319       F  0.67295018  0.84772789  0.93751379    -0.20230
F1320       F  0.66195861  0.90679142  0.94022965    -0.22900
C1321       C  0.89671028  0.78542916  0.07142471    -0.05740
C1322       C  0.86574436  0.76849975  0.08999353     0.00190
C1323       C  0.87040367  0.75563337  0.13381416    -0.08380
C1324       C  0.90695917  0.75394839  0.15355259    -0.05760
C1325       C  0.93832706  0.76944402  0.13439595     0.00180
C1326       C  0.93235029  0.78796053  0.09385105    -0.08290
C1327       C  0.96194156  0.81094388  0.07298899     0.62090
H1328       H  0.89327230  0.79676326  0.03869671     0.12780
H1329       H  0.91084681  0.74017792  0.18481418     0.12790
C1330       C  0.83874726  0.74320958  0.16182114     0.62320
F1331       F  0.99111895  0.82058986  0.10246641    -0.22850
F1332       F  0.97628838  0.79245966  0.03837058    -0.20180
F1333       F  0.94560111  0.84250946  0.05704606    -0.19850
F1334       F  0.83918863  0.70611348  0.16429952    -0.19900
F1335       F  0.80352653  0.75482469  0.14647158    -0.20230
F1336       F  0.84454844  0.75682837  0.20381759    -0.22900
C1337       C  0.57352927  0.71426078  0.09638687    -0.05740
C1338       C  0.57663577  0.73571924  0.13417746     0.00190
C1339       C  0.61175556  0.75283416  0.14547282    -0.08380
C1340       C  0.64242609  0.74663525  0.11919946    -0.05760
C1341       C  0.63895630  0.72674195  0.08004093     0.00180
C1342       C  0.60334689  0.71049946  0.06804844    -0.08290
C1343       C  0.59547955  0.69065739  0.02492527     0.62090
H1344       H  0.54664339  0.70145185  0.08829264     0.12780
H1345       H  0.66936528  0.75886473  0.12852489     0.12790
C1346       C  0.61726618  0.77928023  0.18339407     0.62320
F1347       F  0.55899555  0.67732259  0.02077311    -0.22850
F1348       F  0.61978398  0.66178240  0.02228634    -0.20180
F1349       F  0.59985696  0.71395019  0.99010372    -0.19850
F1350       F  0.62220856  0.76076984  0.22258419    -0.19900
F1351       F  0.58664733  0.80214035  0.18490846    -0.20230
F1352       F  0.64887589  0.80065134  0.17906307    -0.22900
C1353       C  0.89104387  0.75909871  0.85138557    -0.05740
C1354       C  0.92515967  0.74345999  0.86719506     0.00190
C1355       C  0.92550007  0.72250715  0.90611264    -0.08380
C1356       C  0.89283221  0.72153170  0.93006047    -0.05760
C1357       C  0.85884409  0.73834449  0.91525767     0.00180
C1358       C  0.85755887  0.75614923  0.87380318    -0.08290
C1359       C  0.82193739  0.77307270  0.85302694     0.62090
H1360       H  0.89110395  0.77499346  0.82161566     0.12780
H1361       H  0.89422623  0.70731980  0.96114182     0.12790
C1362       C  0.95921145  0.70068261  0.92383374     0.62320
F1363       F  0.82652528  0.78413011  0.81028028    -0.22850
F1364       F  0.81242117  0.80272960  0.87669783    -0.20180
F1365       F  0.79244777  0.74887890  0.85213468    -0.19850
F1366       F  0.97813547  0.71955352  0.95727876    -0.19900
F1367       F  0.94712237  0.66823381  0.94059038    -0.20230
F1368       F  0.98387309  0.69264237  0.89175940    -0.22900
C1369       C  0.60726809  0.78992579  0.92318423    -0.05740
C1370       C  0.63366055  0.76425660  0.91018446     0.00190
C1371       C  0.62494418  0.74399890  0.87141511    -0.08380
C1372       C  0.58976740  0.74885364  0.84909446    -0.05760
C1373       C  0.56314734  0.77354631  0.86295872     0.00180
C1374       C  0.57265719  0.79572533  0.89953960    -0.08290
C1375       C  0.54787385  0.82594042  0.91475546     0.62090
H1376       H  0.61358920  0.80584166  0.95235636     0.12780
H1377       H  0.58192172  0.73189276  0.82129340     0.12790
C1378       C  0.65140268  0.71614731  0.85403116     0.62320
F1379       F  0.56943338  0.85674345  0.92133525    -0.22850
F1380       F  0.53293032  0.81623379  0.95398778    -0.20180
F1381       F  0.51873115  0.83431412  0.88460553    -0.19850
F1382       F  0.65695780  0.68892837  0.88472449    -0.19900
F1383       F  0.68527221  0.73246326  0.84528054    -0.20230
F1384       F  0.63725057  0.70048112  0.81543633    -0.22900
C1385       C  0.70255652  0.60006844  0.07083923    -0.05740
C1386       C  0.73221335  0.62423482  0.08149143     0.00190
C1387       C  0.75776916  0.61586266  0.11786797    -0.08380
C1388       C  0.75404647  0.58274475  0.13960688    -0.05760
C1389       C  0.72525429  0.55825380  0.12794895     0.00180
C1390       C  0.69810409  0.56755113  0.09398198    -0.08290
C1391       C  0.66410505  0.54392184  0.08240913     0.62090
H1392       H  0.68277654  0.60666827  0.04377402     0.12780
H1393       H  0.77406256  0.57535875  0.16612574     0.12790
C1394       C  0.78897856  0.64124449  0.13446069     0.62320
F1395       F  0.63666943  0.56247117  0.05756898    -0.22850
F1396       F  0.64804728  0.53213720  0.12017098    -0.20180
F1397       F  0.67488838  0.51468510  0.05828696    -0.19850
F1398       F  0.77311832  0.67325201  0.14729671    -0.19900
F1399       F  0.81387647  0.64749020  0.10192396    -0.20230
F1400       F  0.80964385  0.62746690  0.17045226    -0.22900
C1401       C  0.69821561  0.87317876  0.09738877    -0.05740
C1402       C  0.73301759  0.85757408  0.08773312     0.00190
C1403       C  0.76703354  0.87435096  0.10442547    -0.08380
C1404       C  0.76462915  0.90722724  0.12704066    -0.05760
C1405       C  0.72987820  0.92335991  0.13385550     0.00180
C1406       C  0.69607671  0.90580881  0.12006268    -0.08290
C1407       C  0.65790757  0.92189212  0.12882444     0.62090
H1408       H  0.67224763  0.86015387  0.08591303     0.12780
H1409       H  0.78996357  0.92106113  0.13917897     0.12790
C1410       C  0.80572445  0.85821470  0.09901197     0.62320
F1411       F  0.62838051  0.89993559  0.11398209    -0.22850
F1412       F  0.65389475  0.95469740  0.10771255    -0.20180
F1413       F  0.65513888  0.92684569  0.17339473    -0.19850
F1414       F  0.81321315  0.85685936  0.05513558    -0.19900
F1415       F  0.80687064  0.82404920  0.11687387    -0.20230
F1416       F  0.83417814  0.87812701  0.12028558    -0.22900
C1417       C  0.95652348  0.87306787  0.59669723    -0.05740
C1418       C  0.98881788  0.88183565  0.57412236     0.00190
C1419       C  0.52068198  0.85859844  0.57774893    -0.08380
C1420       C  0.51935087  0.82827815  0.60545389    -0.05760
C1421       C  0.98689815  0.81961499  0.62738826     0.00180
C1422       C  0.95467730  0.84185620  0.62254782    -0.08290
C1423       C  0.91801945  0.83177408  0.64305710     0.62090
H1424       H  0.93219614  0.89060455  0.59311134     0.12780
H1425       H  0.54319553  0.81015504  0.60904651     0.12790
C1426       C  0.55426001  0.86317590  0.54942737     0.62320
F1427       F  0.88915655  0.85542236  0.63102489    -0.22850
F1428       F  0.92296425  0.83216892  0.68824400    -0.20180
F1429       F  0.90690462  0.79767275  0.62953309    -0.19850
F1430       F  0.57179999  0.89586983  0.55716716    -0.19900
F1431       F  0.54194340  0.86106406  0.50590413    -0.20230
F1432       F  0.58105582  0.83656312  0.55733699    -0.22900
C1433       C  0.94860185  0.67582308  0.61101124    -0.05740
C1434       C  0.98145461  0.68537220  0.63586792     0.00190
C1435       C  0.51313181  0.66228320  0.63704922    -0.08380
C1436       C  0.51061890  0.62996715  0.61332002    -0.05760
C1437       C  0.97816045  0.62060492  0.58725260     0.00180
C1438       C  0.94633639  0.64387724  0.58620947    -0.08290
C1439       C  0.91023512  0.63565498  0.55897969     0.62090
H1440       H  0.92498450  0.69427649  0.61030827     0.12780
H1441       H  0.53491791  0.61238803  0.61353223     0.12790
C1442       C  0.55006259  0.67250740  0.66150204     0.62320
F1443       F  0.88130428  0.65876111  0.56867673    -0.22850
F1444       F  0.89833225  0.60093610  0.56715985    -0.20180
F1445       F  0.91640817  0.63947236  0.51488685    -0.19850
F1446       F  0.54513038  0.67409165  0.70601569    -0.19900
F1447       F  0.56208373  0.70572507  0.64707804    -0.20230
F1448       F  0.57834048  0.64779994  0.65487006    -0.22900
C1449       C  0.54660007  0.86900388  0.40707987    -0.05740
C1450       C  0.01292041  0.88857882  0.41130571     0.00190
C1451       C  0.97904542  0.87527202  0.38985833    -0.08380
C1452       C  0.98003197  0.84228968  0.36721645    -0.05760
C1453       C  0.01320812  0.82219443  0.36582366     0.00180
C1454       C  0.54723195  0.83582532  0.38525816    -0.08290
C1455       C  0.58400054  0.81513259  0.38320682     0.62090
H1456       H  0.57262578  0.87913820  0.42254435     0.12780
H1457       H  0.95459828  0.83127610  0.35120287     0.12790
C1458       C  0.94176864  0.89485764  0.39119824     0.62320
F1459       F  0.61438133  0.83422389  0.40164663    -0.22850
F1460       F  0.59110024  0.80803051  0.33999260    -0.20180
F1461       F  0.58152768  0.78298795  0.40581247    -0.19850
F1462       F  0.94558374  0.92951396  0.37531352    -0.19900
F1463       F  0.93056812  0.89562116  0.43384415    -0.20230
F1464       F  0.91350808  0.87810914  0.36566949    -0.22900
C1465       C  0.98550527  0.63136434  0.39133482    -0.05740
C1466       C  0.01462975  0.62537275  0.42375667     0.00190
C1467       C  0.54364010  0.65170876  0.42994397    -0.08380
C1468       C  0.54279323  0.68214757  0.40222867    -0.05760
C1469       C  0.01351459  0.68782927  0.37021655     0.00180
C1470       C  0.98375031  0.66253958  0.36533166    -0.08290
C1471       C  0.94918085  0.66905990  0.33460359     0.62090
H1472       H  0.96311676  0.61172108  0.38705567     0.12780
H1473       H  0.56468823  0.70242740  0.40589800     0.12790
C1474       C  0.57511353  0.64851740  0.46559579     0.62320
F1475       F  0.92091848  0.64411411  0.34095911    -0.22850
F1476       F  0.95868640  0.66659333  0.29147311    -0.20180
F1477       F  0.93457195  0.70286244  0.34197768    -0.19850
F1478       F  0.59379905  0.61612503  0.46199702    -0.19900
F1479       F  0.56016211  0.65075909  0.50639597    -0.20230
F1480       F  0.60154226  0.67578644  0.46285611    -0.22900
C1481       C  0.65498264  0.98049498  0.65204709    -0.05740
C1482       C  0.68464611  0.00036558  0.63454510     0.00190
C1483       C  0.67781006  0.51762628  0.59319363    -0.08380
C1484       C  0.64467326  0.50917468  0.56818395    -0.05760
C1485       C  0.61535841  0.48957081  0.58588548     0.00180
C1486       C  0.61946007  0.97713919  0.62964551    -0.08290
C1487       C  0.58653234  0.96106495  0.65280862     0.62090
H1488       H  0.65959311  0.96748844  0.68360996     0.12780
H1489       H  0.64023059  0.52087621  0.53573299     0.12790
C1490       C  0.70235831  0.54722597  0.57532386     0.62320
F1491       F  0.59713327  0.94965955  0.69489116    -0.22850
F1492       F  0.57197219  0.93188380  0.62974440    -0.20180
F1493       F  0.55857155  0.48666133  0.65588606    -0.19850
F1494       F  0.72134458  0.03421082  0.54032255    -0.19900
F1495       F  0.72799579  0.56091510  0.60669163    -0.20230
F1496       F  0.67976937  0.57562586  0.56064232    -0.22900
C1497       C  0.85935689  0.98354613  0.56543379    -0.05740
C1498       C  0.89077995  0.00184231  0.58401250     0.00190
C1499       C  0.89141195  0.51213514  0.62845919    -0.08380
C1500       C  0.85841521  0.50745413  0.65140973    -0.05760
C1501       C  0.82638194  0.98934818  0.63284256     0.00180
C1502       C  0.82835837  0.97464697  0.58995970    -0.08290
C1503       C  0.80020738  0.94806042  0.56906341     0.62090
H1504       H  0.86000838  0.97418078  0.53185212     0.12780
H1505       H  0.85738920  0.51876640  0.68390892     0.12790
C1506       C  0.92641787  0.52830341  0.65129109     0.62320
F1507       F  0.81939282  0.42029649  0.54997031    -0.22850
F1508       F  0.77815497  0.46525044  0.53663351    -0.20180
F1509       F  0.77736252  0.93255351  0.59916183    -0.19850
F1510       F  0.93567695  0.55994140  0.63077336    -0.19900
F1511       F  0.95614544  0.00442215  0.64968681    -0.20230
F1512       F  0.92116810  0.03581958  0.69491966    -0.22900
C1513       C  0.63553427  0.99086433  0.43490329    -0.05740
C1514       C  0.60684426  0.51434832  0.41984181     0.00190
C1515       C  0.60844002  0.53017550  0.37785474    -0.08380
C1516       C  0.64068850  0.52436903  0.35391032    -0.05760
C1517       C  0.66958574  0.00068095  0.36886269     0.00180
C1518       C  0.66555718  0.98182858  0.40901264    -0.08290
C1519       C  0.69035718  0.95049081  0.42455670     0.62090
H1520       H  0.63314573  0.97758754  0.46630352     0.12780
H1521       H  0.64359212  0.53859284  0.32329286     0.12790
C1522       C  0.57667576  0.55349642  0.35883628     0.62320
F1523       F  0.66883704  0.92437644  0.44396862    -0.22850
F1524       F  0.71759620  0.46240831  0.45524929    -0.20180
F1525       F  0.70735866  0.93410250  0.39024671    -0.19850
F1526       F  0.57304950  0.58320501  0.38507371    -0.19900
F1527       F  0.54324227  0.03424455  0.35685308    -0.20230
F1528       F  0.58328875  0.56534879  0.31690669    -0.22900
C1529       C  0.86235801  0.96017430  0.39893673    -0.05740
C1530       C  0.87801225  0.99262243  0.41476243     0.00190
C1531       C  0.85869871  0.52557517  0.40492546    -0.08380
C1532       C  0.82480065  0.52448455  0.37896455    -0.05760
C1533       C  0.80977027  0.99214643  0.36266616     0.00180
C1534       C  0.82883649  0.95941478  0.37210489    -0.08290
C1535       C  0.81373725  0.92395409  0.35391093     0.62090
H1536       H  0.87674498  0.93542331  0.40738004     0.12780
H1537       H  0.80908370  0.54892648  0.37171992     0.12790
C1538       C  0.87179401  0.56165976  0.42374921     0.62320
F1539       F  0.83593364  0.89515097  0.36800258    -0.22850
F1540       F  0.81283665  0.92487889  0.30860538    -0.20180
F1541       F  0.77770863  0.91809734  0.36733562    -0.19850
F1542       F  0.90717673  0.57025442  0.41024309    -0.19900
F1543       F  0.87249587  0.56022379  0.46888565    -0.20230
F1544       F  0.84782834  0.58946112  0.41048804    -0.22900
loop_ 
_geom_bond_atom_site_label_1 
_geom_bond_atom_site_label_2 
_geom_bond_distance 
_geom_bond_site_symmetry_2 
_ccdc_geom_bond_type 
O1            C9   1.263       .  A
O1          Co21   2.026       .  S
O2           C10   1.279       .  A
O2          Co22   2.039       .  S
O3           C11   1.262       .  A
O3          Co23   1.958       .  S
O4           C12   1.265       .  A
O4          Co24   1.881       .  S
O5          C783   1.271       .  A
O5          Co22   2.023       .  S
O6          C784   1.298       .  A
O6          Co21   2.113       .  S
O7          C396   1.264       .  A
O7          Co24   1.967       .  S
O8          C395   1.249   1_545  A
O8          Co23   1.960       .  S
C9          O394   1.249       .  A
C9          C372   1.484       .  S
C10         O393   1.264   1_545  A
C10         C356   1.476       .  S
C11         O777   1.271       .  A
C11         C308   1.493       .  S
C12         O778   1.298   1_455  A
C12        C1064   1.501       .  S
O13         C798   1.264       .  A
O13         Co21   1.890       .  S
O14         C799   1.261   1_455  A
O14         Co22   1.964       .  S
O15         C414   1.278       .  A
O15         Co23   2.034       .  S
O16         C415   1.264       .  A
O16         Co24   2.016       .  S
O17          C29   1.251   1_545  A
O17         Co22   1.967       .  S
O18          C28   1.265       .  A
O18         Co21   1.968       .  S
O19          C26   1.296   1_455  A
O19         Co24   2.110       .  S
O20          C27   1.267       .  A
O20         Co23   2.015       .  S
Co21         O25   2.021       .  S
Co22       O1183   2.031   1_455  S
Co23        O411   2.018       .  S
Co24        O797   2.005   1_455  S
O25       Co1180   2.031       .  S
O25        Co409   2.018       .  S
O25        Co796   2.005       .  S
C26         O785   1.264       .  A
C26        C1032   1.485       .  S
C27         O786   1.261       .  A
C27         C279   1.489       .  S
C28         O401   1.278       .  A
C28         C340   1.472       .  S
C29         O402   1.264       .  A
C29         C327   1.471       .  S
C30         C311   1.481       .  S
C30          C31   1.404       .  A
C30          C35   1.403       .  A
C31          C32   1.402       .  A
C31          H36   1.084       .  S
C32         C295   1.476       .  S
C32          C33   1.399       .  A
C33          C34   1.401       .  A
C33          H37   1.084       .  S
C34         C106   1.471       .  S
C34          C35   1.401       .  A
C35          H38   1.083       .  S
C39         C375   1.477       .  S
C39          C44   1.399       .  A
C39         C426   1.401       .  A
C40         C425   1.401       .  A
C40         C427   1.406       .  A
C40          H45   1.082   1_565  S
C41         C359   1.495       .  S
C41          C42   1.409       .  A
C41         C426   1.406       .  A
C42          C43   1.403       .  A
C42          H46   1.083       .  S
C43          C68   1.471       .  S
C43          C44   1.401       .  A
C44          H47   1.084       .  S
C48         C343   1.500       .  S
C48          C53   1.409       .  A
C48         C435   1.408       .  A
C49         C434   1.408       .  A
C49         C436   1.406       .  A
C49          H54   1.078       .  S
C50         C324   1.499       .  S
C50          C51   1.406       .  A
C50         C435   1.406       .  A
C51          C52   1.399       .  A
C51          H55   1.083       .  S
C52         C115   1.471       .  S
C52          C53   1.399       .  A
C53          H56   1.083       .  S
C57         C276   1.480       .  S
C57          C58   1.404       .  A
C57          C62   1.403       .  A
C58          C59   1.403       .  A
C58          H63   1.084       .  S
C59         C263   1.477       .  S
C59          C60   1.399       .  A
C60          C61   1.399       .  A
C60          H64   1.084       .  S
C61         C124   1.470       .  S
C61          C62   1.402       .  A
C62          H65   1.084       .  S
C66         C247   1.474       .  S
C66          C67   1.398       .  A
C66          C71   1.404       .  A
C67          C68   1.397       .  A
C67          H72   1.084       .  S
C68         C455   1.404       .  A
C69          C70   1.409       .  A
C69         C454   1.404   1_545  A
C69          H73   1.084       .  S
C70         C231   1.491       .  S
C70         C457   1.405   1_545  A
C71         C456   1.405       .  A
C71          H74   1.082       .  S
O75          C83   1.298       .  A
O75         Co95   2.122   1_554  S
O76          C84   1.277       .  A
O76         Co96   2.037   1_554  S
O77          C85   1.269       .  A
O77         Co97   1.971       .  S
O78          C86   1.257       .  A
O78         Co98   1.975       .  S
O79          C85   1.273       .  A
O79         Co96   2.021   1_554  S
O80          C86   1.261       .  A
O80         Co95   1.997   1_554  S
O81          C84   1.258       .  A
O81         Co98   1.958       .  S
O82          C83   1.265       .  A
O82         Co97   1.874       .  S
C83         C244   1.498       .  S
C84         C228   1.499       .  S
C85         C183   1.502       .  S
C86         C164   1.492       .  S
O87         C100   1.270       .  A
O87         Co95   1.974       .  S
O88         C101   1.260       .  A
O88         Co96   1.980       .  S
O89         C102   1.297       .  A
O89         Co97   2.122   1_556  S
O90         C103   1.274       .  A
O90         Co98   2.029   1_556  S
O91         C103   1.261       .  A
O91         Co96   1.972       .  S
O92         C102   1.263       .  A
O92         Co95   1.887       .  S
O93         C100   1.281       .  A
O93         Co98   2.021   1_556  S
O94         C101   1.264       .  A
O94         Co97   2.004   1_556  S
Co95         O99   2.005       .  S
Co96         O99   2.036       .  S
Co97         O99   2.002   1_554  S
Co98         O99   2.026   1_554  S
C100        C199   1.499       .  S
C101        C212   1.497       .  S
C102        C148   1.492       .  S
C103        C132   1.502       .  S
C104        C180   1.497       .  S
C104        C105   1.404       .  A
C104        C881   1.413       .  A
C105        C878   1.398       .  A
C105        H110   1.079       .  S
C106        C107   1.397       .  A
C106        C877   1.398       .  A
C107        C108   1.405       .  A
C107        H111   1.084       .  S
C108        C167   1.497       .  S
C108        C109   1.410       .  A
C109        C876   1.413       .  A
C109        H112   1.081       .  S
C113        C151   1.477       .  S
C113        C114   1.399       .  A
C113        C118   1.404       .  A
C114        C115   1.397       .  A
C114        H119   1.084       .  S
C115        C502   1.401       .  A
C116        C117   1.413       .  A
C116        C501   1.401   1_545  A
C116        H120   1.083       .  S
C117        C135   1.503       .  S
C117        C504   1.408   1_545  A
C118        C503   1.408       .  A
C118        H121   1.081       .  S
C122        C215   1.485       .  S
C122        C123   1.403       .  A
C122        C899   1.406   1_455  A
C123        C896   1.397   1_455  A
C123        H128   1.085       .  S
C124        C125   1.398       .  A
C124        C895   1.397       .  A
C125        C126   1.406       .  A
C125        H129   1.084       .  S
C126        C196   1.491       .  S
C126        C127   1.409       .  A
C127        C894   1.406       .  A
C127        H130   1.081       .  S
C131        C132   1.408       .  A
C131        C136   1.410       .  A
C131        H138   1.084       .  S
C132        C133   1.421       .  A
C133        C134   1.402       .  A
C133        C140   1.510       .  S
C134        C135   1.404       .  A
C134        H139   1.081       .  S
C135        C136   1.426       .  A
C136        C137   1.518       .  S
C137        F141   1.385       .  S
C137        F142   1.381       .  S
C137        F143   1.383       .  S
C140        F144   1.377       .  S
C140        F145   1.373       .  S
C140        F146   1.386       .  S
C147        C148   1.405       .  A
C147        C152   1.401       .  A
C147        H154   1.079       .  S
C148        C149   1.424       .  A
C149        C150   1.411       .  A
C149        C156   1.516       .  S
C150        C151   1.400       .  A
C150        H155   1.083       .  S
C151        C152   1.413       .  A
C152        C153   1.522       .  S
C153        F157   1.384       .  S
C153        F158   1.382       .  S
C153        F159   1.382       .  S
C156        F160   1.380       .  S
C156        F161   1.380       .  S
C156        F162   1.385       .  S
C163        C164   1.410       .  A
C163        C168   1.408       .  A
C163        H170   1.084       .  S
C164        C165   1.421       .  A
C165        C166   1.402       .  A
C165        C172   1.519       .  S
C166        C167   1.407       .  A
C166        H171   1.084       .  S
C167        C168   1.421       .  A
C168        C169   1.518       .  S
C169        F173   1.382       .  S
C169        F174   1.383       .  S
C169        F175   1.384       .  S
C172        F176   1.380       .  S
C172        F177   1.380       .  S
C172        F178   1.385       .  S
C179        C180   1.404       .  A
C179        C184   1.410       .  A
C179        H186   1.082       .  S
C180        C181   1.424       .  A
C181        C182   1.407       .  A
C181        C188   1.525       .  S
C182        C183   1.407       .  A
C182        H187   1.082       .  S
C183        C184   1.429       .  A
C184        C185   1.523       .  S
C185        F189   1.385       .  S
C185        F190   1.383       .  S
C185        F191   1.384   1_554  S
C188        F192   1.381       .  S
C188        F193   1.383       .  S
C188        F194   1.385       .  S
C195        C196   1.405       .  A
C195        C200   1.407       .  A
C195        H202   1.083       .  S
C196        C197   1.418       .  A
C197        C198   1.404       .  A
C197        C204   1.521       .  S
C198        C199   1.411       .  A
C198        H203   1.083       .  S
C199        C200   1.425       .  A
C200        C201   1.520       .  S
C201        F205   1.385       .  S
C201        F206   1.372       .  S
C201        F207   1.377       .  S
C204        F208   1.383       .  S
C204        F209   1.384       .  S
C204        F210   1.382       .  S
C211        C212   1.411       .  A
C211        C216   1.407       .  A
C211        H218   1.084       .  S
C212        C213   1.424       .  A
C213        C214   1.401       .  A
C213        C220   1.515       .  S
C214        C215   1.401       .  A
C214        H219   1.083       .  S
C215        C216   1.416       .  A
C216        C217   1.517       .  S
C217        F221   1.384       .  S
C217        F222   1.383       .  S
C217        F223   1.382       .  S
C220        F224   1.384       .  S
C220        F225   1.384       .  S
C220        F226   1.385       .  S
C227        C228   1.407       .  A
C227        C232   1.411       .  A
C227        H234   1.083       .  S
C228        C229   1.429       .  A
C229        C230   1.406       .  A
C229        C236   1.520       .  S
C230        C231   1.399       .  A
C230        H235   1.083       .  S
C231        C232   1.419       .  A
C232        C233   1.517       .  S
C233        F237   1.385       .  S
C233        F238   1.383       .  S
C233        F239   1.381       .  S
C236        F240   1.383       .  S
C236        F241   1.384       .  S
C236        F242   1.385       .  S
C243        C244   1.411       .  A
C243        C248   1.402       .  A
C243        H250   1.082       .  S
C244        C245   1.427       .  A
C245        C246   1.410       .  A
C245        C252   1.517       .  S
C246        C247   1.398       .  A
C246        H251   1.083       .  S
C247        C248   1.409       .  A
C248        C249   1.519       .  S
C249        F253   1.384       .  S
C249        F254   1.381       .  S
C249        F255   1.383       .  S
C252        F256   1.381       .  S
C252        F257   1.380       .  S
C252        F258   1.385       .  S
C259        C260   1.406       .  A
C259        C264   1.404       .  A
C259        H266   1.083       .  S
C260        C798   1.485       .  S
C260       C1033   1.423       .  A
C261        C262   1.409       .  A
C261       C1032   1.423   1_455  A
C261        C268   1.519       .  S
C262       C1035   1.400   1_455  A
C262        H267   1.083       .  S
C263        C264   1.413       .  A
C263       C1034   1.400       .  A
C264        C265   1.520       .  S
C265        F269   1.384       .  S
C265        F270   1.382       .  S
C265        F271   1.384       .  S
C268        F272   1.379       .  S
C268        F273   1.379       .  S
C268        F274   1.385       .  S
C275        C276   1.402       .  A
C275        C280   1.410       .  A
C275        H282   1.083       .  S
C276       C1049   1.414       .  A
C277        C278   1.404       .  A
C277       C1048   1.414   1_455  A
C277        C284   1.521       .  S
C278       C1051   1.408   1_455  A
C278        H283   1.082       .  S
C279        C280   1.423       .  A
C279       C1050   1.408       .  A
C280        C281   1.520       .  S
C281        F285   1.385       .  S
C281        F286   1.383       .  S
C281        F287   1.383       .  S
C284        F288   1.381       .  S
C284        F289   1.383       .  S
C284        F290   1.385       .  S
C291        C296   1.404       .  A
C291       C1064   1.412       .  A
C291        H298   1.082       .  S
C292        C784   1.501       .  S
C292        C293   1.426       .  A
C292       C1063   1.412       .  A
C293        C294   1.410       .  A
C293        C300   1.514       .  S
C294        C295   1.398       .  A
C294        H299   1.083       .  S
C295       C1068   1.410       .  A
C296       C1067   1.410       .  A
C296        C297   1.520       .  S
C297        F301   1.384       .  S
C297        F302   1.383       .  S
C297        F303   1.382       .  S
C300        F304   1.383       .  S
C300        F305   1.383       .  S
C300        F306   1.384       .  S
C307        C308   1.409       .  A
C307        C312   1.402       .  A
C307        H314   1.081       .  S
C308       C1081   1.424       .  A
C309        C310   1.410       .  A
C309       C1080   1.424       .  A
C309        C316   1.521       .  S
C310       C1083   1.403       .  A
C310        H315   1.083       .  S
C311        C312   1.414       .  A
C311       C1082   1.403       .  A
C312        C313   1.523       .  S
C313        F317   1.385       .  S
C313        F318   1.381       .  S
C313        F319   1.383       .  S
C316        F320   1.383       .  S
C316        F321   1.383       .  S
C316        F322   1.385       .  S
C323        C324   1.412       .  A
C323        C328   1.407       .  A
C323        H330   1.081       .  S
C324        C711   1.424       .  A
C325        C326   1.403       .  A
C325        C710   1.424       .  A
C325        C332   1.520       .  S
C326        C327   1.400   1_545  A
C326        H331   1.085       .  S
C327        C714   1.413       .  A
C328        C713   1.413       .  A
C328        C329   1.519       .  S
C329        F333   1.385       .  S
C329        F334   1.379       .  S
C329        F721   1.383       .  S
C332        F337   1.382       .  S
C332        F338   1.385       .  S
C332        F722   1.383       .  S
F335        C715   1.383       .  S
F336        C718   1.383       .  S
C339        C340   1.399       .  A
C339        C344   1.402       .  A
C339        H346   1.085       .  S
C340        C727   1.410       .  A
C341        C342   1.407       .  A
C341        C726   1.410       .  A
C341        C348   1.515       .  S
C342        C729   1.413   1_545  A
C342        H347   1.081       .  S
C343        C344   1.426       .  A
C343        C728   1.413       .  A
C344        C345   1.520       .  S
C345        F351   1.382       .  S
C345        F735   1.385       .  S
C345        F736   1.384       .  S
C348        F352   1.378       .  S
C348        F739   1.383       .  S
C348        F740   1.385       .  S
F349        C731   1.385       .  S
F350        C731   1.384       .  S
F353        C734   1.383       .  S
F354        C734   1.385       .  S
C355        C360   1.403       .  A
C355        C742   1.400       .  A
C355        H362   1.084       .  S
C356        C357   1.413       .  A
C356        C741   1.400   1_545  A
C357        C358   1.409       .  A
C357        C364   1.513       .  S
C358        C745   1.409       .  A
C358        H363   1.082       .  S
C359        C360   1.424       .  A
C359        C744   1.409       .  A
C360        C361   1.520       .  S
C361        F365   1.385       .  S
C361        F367   1.381       .  S
C361        F752   1.383       .  S
C364        F368   1.376       .  S
C364        F370   1.385       .  S
C364        F755   1.383       .  S
F366        C747   1.383       .  S
F369        C750   1.383       .  S
C371        C372   1.402       .  A
C371        C376   1.408       .  A
C371        H378   1.076       .  S
C372        C759   1.427       .  A
C373        C374   1.405       .  A
C373        C758   1.427   1_545  A
C373        C380   1.522       .  S
C374        C761   1.396   1_545  A
C374        H379   1.083       .  S
C375        C376   1.414       .  A
C375        C760   1.396       .  A
C376        C377   1.517       .  S
C377        F381   1.384       .  S
C377        F382   1.383       .  S
C377        F383   1.380       .  S
C380        F384   1.379       .  S
C380        F385   1.378       .  S
C380        F386   1.385       .  S
O387        C395   1.263       .  A
O387       Co407   2.026       .  S
O388        C396   1.279       .  A
O388       Co408   2.039       .  S
O389        C397   1.262       .  A
O389       Co409   1.958       .  S
O390        C398   1.265       .  A
O390       Co410   1.881       .  S
O391       C1169   1.271       .  A
O391       Co408   2.023       .  S
O392       C1170   1.298       .  A
O392       Co407   2.113       .  S
O393       Co410   1.967       .  S
O394       Co409   1.960       .  S
C395        C758   1.484       .  S
C396        C742   1.476       .  S
C397       O1163   1.271       .  A
C397        C694   1.493       .  S
C398       O1164   1.298   1_455  A
C398       C1450   1.501       .  S
O399       C1184   1.264       .  A
O399       Co407   1.890       .  S
O400       C1185   1.261   1_455  A
O400       Co408   1.964       .  S
O401       Co409   2.034       .  S
O402       Co410   2.016       .  S
O403        C415   1.251       .  A
O403       Co408   1.967       .  S
O404        C414   1.265   1_565  A
O404       Co407   1.968       .  S
O405        C412   1.296   1_455  A
O405       Co410   2.110       .  S
O406        C413   1.267       .  A
O406       Co409   2.015       .  S
Co407       O411   2.021   1_565  S
Co408       O797   2.031   1_455  S
Co410      O1183   2.005   1_465  S
O411       Co794   2.031       .  S
O411      Co1182   2.005   1_545  S
C412       O1171   1.264       .  A
C412       C1418   1.485       .  S
C413       O1172   1.261       .  A
C413        C665   1.489       .  S
C414        C726   1.472       .  S
C415        C713   1.471       .  S
C416        C697   1.481       .  S
C416        C417   1.404       .  A
C416        C421   1.403       .  A
C417        C418   1.402       .  A
C417        H422   1.084       .  S
C418        C681   1.476       .  S
C418        C419   1.399       .  A
C419        C420   1.401       .  A
C419        H423   1.084       .  S
C420        C492   1.471       .  S
C420        C421   1.401       .  A
C421        H424   1.083       .  S
C425        C761   1.477       .  S
C425        C430   1.399       .  A
C426        H431   1.082       .  S
C427        C745   1.495   1_565  S
C427        C428   1.409       .  A
C428        C429   1.403       .  A
C428        H432   1.083       .  S
C429        C454   1.471       .  S
C429        C430   1.401       .  A
C430        H433   1.084       .  S
C434        C729   1.500       .  S
C434        C439   1.409       .  A
C435        H440   1.078       .  S
C436        C710   1.499   1_565  S
C436        C437   1.406       .  A
C437        C438   1.399       .  A
C437        H441   1.083   1_565  S
C438        C501   1.471       .  S
C438        C439   1.399       .  A
C439        H442   1.083       .  S
C443        C662   1.480       .  S
C443        C444   1.404       .  A
C443        C448   1.403       .  A
C444        C445   1.403       .  A
C444        H449   1.084       .  S
C445        C649   1.477       .  S
C445        C446   1.399       .  A
C446        C447   1.399       .  A
C446        H450   1.084       .  S
C447        C510   1.470       .  S
C447        C448   1.402       .  A
C448        H451   1.084       .  S
C452        C633   1.474       .  S
C452        C453   1.398       .  A
C452        C457   1.404       .  A
C453        C454   1.397       .  A
C453        H458   1.084       .  S
C455        C456   1.409       .  A
C455        H459   1.084       .  S
C456        C617   1.491       .  S
C457        H460   1.082       .  S
O461        C469   1.298       .  A
O461       Co481   2.122   1_554  S
O462        C470   1.277       .  A
O462       Co482   2.037   1_554  S
O463        C471   1.269       .  A
O463       Co483   1.971       .  S
O464        C472   1.257       .  A
O464       Co484   1.975       .  S
O465        C471   1.273       .  A
O465       Co482   2.021   1_554  S
O466        C472   1.261       .  A
O466       Co481   1.997   1_554  S
O467        C470   1.258       .  A
O467       Co484   1.958       .  S
O468        C469   1.265       .  A
O468       Co483   1.874       .  S
C469        C630   1.498       .  S
C470        C614   1.499       .  S
C471        C569   1.502       .  S
C472        C550   1.492       .  S
O473        C486   1.270       .  A
O473       Co481   1.974       .  S
O474        C487   1.260       .  A
O474       Co482   1.980       .  S
O475        C488   1.297       .  A
O475       Co483   2.122   1_556  S
O476        C489   1.274       .  A
O476       Co484   2.029   1_556  S
O477        C489   1.261       .  A
O477       Co482   1.972       .  S
O478        C488   1.263       .  A
O478       Co481   1.887       .  S
O479        C486   1.281       .  A
O479       Co484   2.021   1_556  S
O480        C487   1.264       .  A
O480       Co483   2.004   1_556  S
Co481       O485   2.005       .  S
Co482       O485   2.036       .  S
Co483       O485   2.002   1_554  S
Co484       O485   2.026   1_554  S
C486        C585   1.499       .  S
C487        C598   1.497       .  S
C488        C534   1.492       .  S
C489        C518   1.502       .  S
C490        C566   1.497       .  S
C490        C491   1.404       .  A
C490       C1267   1.413       .  A
C491       C1264   1.398       .  A
C491        H496   1.079       .  S
C492       C1263   1.398       .  A
C492        C493   1.397       .  A
C493        C494   1.405       .  A
C493        H497   1.084       .  S
C494        C553   1.497       .  S
C494        C495   1.410       .  A
C495       C1262   1.413       .  A
C495        H498   1.081       .  S
C499        C537   1.477       .  S
C499        C500   1.399       .  A
C499        C504   1.404       .  A
C500        C501   1.397       .  A
C500        H505   1.084       .  S
C502        C503   1.413       .  A
C502        H506   1.083       .  S
C503        C521   1.503       .  S
C504        H507   1.081       .  S
C508        C601   1.485       .  S
C508        C509   1.403       .  A
C508       C1285   1.406   1_455  A
C509       C1282   1.397   1_455  A
C509        H514   1.085       .  S
C510       C1281   1.397       .  A
C510        C511   1.398       .  A
C511        C512   1.406       .  A
C511        H515   1.084       .  S
C512        C582   1.491       .  S
C512        C513   1.409       .  A
C513       C1280   1.406       .  A
C513        H516   1.081       .  S
C517        C518   1.408       .  A
C517        C522   1.410       .  A
C517        H524   1.084       .  S
C518        C519   1.421       .  A
C519        C520   1.402       .  A
C519        C526   1.510       .  S
C520        C521   1.404       .  A
C520        H525   1.081       .  S
C521        C522   1.426       .  A
C522        C523   1.518       .  S
C523        F527   1.385       .  S
C523        F528   1.381       .  S
C523        F529   1.383       .  S
C526        F530   1.377       .  S
C526        F531   1.373       .  S
C526        F532   1.386       .  S
C533        C534   1.405       .  A
C533        C538   1.401       .  A
C533        H540   1.079       .  S
C534        C535   1.424       .  A
C535        C536   1.411       .  A
C535        C542   1.516       .  S
C536        C537   1.400       .  A
C536        H541   1.083       .  S
C537        C538   1.413       .  A
C538        C539   1.522       .  S
C539        F543   1.384       .  S
C539        F544   1.382       .  S
C539        F545   1.382       .  S
C542        F546   1.380       .  S
C542        F547   1.380       .  S
C542        F548   1.385       .  S
C549        C550   1.410       .  A
C549        C554   1.408       .  A
C549        H556   1.084       .  S
C550        C551   1.421       .  A
C551        C552   1.402       .  A
C551        C558   1.519       .  S
C552        C553   1.407       .  A
C552        H557   1.084       .  S
C553        C554   1.421       .  A
C554        C555   1.518       .  S
C555        F559   1.382       .  S
C555        F560   1.383       .  S
C555        F561   1.384       .  S
C558        F562   1.380       .  S
C558        F563   1.380       .  S
C558        F564   1.385       .  S
C565        C566   1.404       .  A
C565        C570   1.410       .  A
C565        H572   1.082       .  S
C566        C567   1.424       .  A
C567        C568   1.407       .  A
C567        C574   1.525       .  S
C568        C569   1.407       .  A
C568        H573   1.082       .  S
C569        C570   1.429       .  A
C570        C571   1.523       .  S
C571        F575   1.385       .  S
C571        F576   1.383       .  S
C571        F577   1.384   1_554  S
C574        F578   1.381       .  S
C574        F579   1.383       .  S
C574        F580   1.385       .  S
C581        C582   1.405       .  A
C581        C586   1.407       .  A
C581        H588   1.083       .  S
C582        C583   1.418       .  A
C583        C584   1.404       .  A
C583        C590   1.521       .  S
C584        C585   1.411       .  A
C584        H589   1.083       .  S
C585        C586   1.425       .  A
C586        C587   1.520       .  S
C587        F591   1.385       .  S
C587        F592   1.372       .  S
C587        F593   1.377       .  S
C590        F594   1.383       .  S
C590        F595   1.384       .  S
C590        F596   1.382       .  S
C597        C598   1.411       .  A
C597        C602   1.407       .  A
C597        H604   1.084       .  S
C598        C599   1.424       .  A
C599        C600   1.401       .  A
C599        C606   1.515       .  S
C600        C601   1.401       .  A
C600        H605   1.083       .  S
C601        C602   1.416       .  A
C602        C603   1.517       .  S
C603        F607   1.384       .  S
C603        F608   1.383       .  S
C603        F609   1.382       .  S
C606        F610   1.384       .  S
C606        F611   1.384       .  S
C606        F612   1.385       .  S
C613        C614   1.407       .  A
C613        C618   1.411       .  A
C613        H620   1.083       .  S
C614        C615   1.429       .  A
C615        C616   1.406       .  A
C615        C622   1.520       .  S
C616        C617   1.399       .  A
C616        H621   1.083       .  S
C617        C618   1.419       .  A
C618        C619   1.517       .  S
C619        F623   1.385       .  S
C619        F624   1.383       .  S
C619        F625   1.381       .  S
C622        F626   1.383       .  S
C622        F627   1.384       .  S
C622        F628   1.385       .  S
C629        C630   1.411       .  A
C629        C634   1.402       .  A
C629        H636   1.082       .  S
C630        C631   1.427       .  A
C631        C632   1.410       .  A
C631        C638   1.517       .  S
C632        C633   1.398       .  A
C632        H637   1.083       .  S
C633        C634   1.409       .  A
C634        C635   1.519       .  S
C635        F639   1.384       .  S
C635        F640   1.381       .  S
C635        F641   1.383       .  S
C638        F642   1.381       .  S
C638        F643   1.380       .  S
C638        F644   1.385       .  S
C645        C646   1.406       .  A
C645        C650   1.404       .  A
C645        H652   1.083       .  S
C646       C1184   1.485       .  S
C646       C1419   1.423       .  A
C647       C1418   1.423   1_455  A
C647        C648   1.409       .  A
C647        C654   1.519       .  S
C648       C1421   1.400   1_455  A
C648        H653   1.083       .  S
C649       C1420   1.400       .  A
C649        C650   1.413       .  A
C650        C651   1.520       .  S
C651        F655   1.384       .  S
C651        F656   1.382       .  S
C651        F657   1.384       .  S
C654        F658   1.379       .  S
C654        F659   1.379       .  S
C654        F660   1.385       .  S
C661        C662   1.402       .  A
C661        C666   1.410       .  A
C661        H668   1.083       .  S
C662       C1435   1.414       .  A
C663       C1434   1.414   1_455  A
C663        C664   1.404       .  A
C663        C670   1.521       .  S
C664       C1437   1.408   1_455  A
C664        H669   1.082       .  S
C665       C1436   1.408       .  A
C665        C666   1.423       .  A
C666        C667   1.520       .  S
C667        F671   1.385       .  S
C667        F672   1.383       .  S
C667        F673   1.383       .  S
C670        F674   1.381       .  S
C670        F675   1.383       .  S
C670        F676   1.385       .  S
C677       C1450   1.412       .  A
C677        C682   1.404       .  A
C677        H684   1.082       .  S
C678       C1170   1.501       .  S
C678       C1449   1.412       .  A
C678        C679   1.426       .  A
C679        C680   1.410       .  A
C679        C686   1.514       .  S
C680        C681   1.398       .  A
C680        H685   1.083       .  S
C681       C1454   1.410       .  A
C682       C1453   1.410       .  A
C682        C683   1.520       .  S
C683        F687   1.384       .  S
C683        F688   1.383       .  S
C683        F689   1.382       .  S
C686        F690   1.383       .  S
C686        F691   1.383       .  S
C686        F692   1.384       .  S
C693        C694   1.409       .  A
C693        C698   1.402       .  A
C693        H700   1.081       .  S
C694       C1467   1.424       .  A
C695       C1466   1.424       .  A
C695        C696   1.410       .  A
C695        C702   1.521       .  S
C696       C1469   1.403       .  A
C696        H701   1.083       .  S
C697       C1468   1.403       .  A
C697        C698   1.414       .  A
C698        C699   1.523       .  S
C699        F703   1.385       .  S
C699        F704   1.381       .  S
C699        F705   1.383       .  S
C702        F706   1.383       .  S
C702        F707   1.383       .  S
C702        F708   1.385       .  S
C709        C710   1.412   1_565  A
C709        C714   1.407       .  A
C709        H716   1.081       .  S
C711        C712   1.403       .  A
C711        C718   1.520       .  S
C712        C713   1.400       .  A
C712        H717   1.085       .  S
C714        C715   1.519       .  S
C715        F719   1.385       .  S
C715        F720   1.379       .  S
C718        F723   1.382       .  S
C718        F724   1.385       .  S
C725        C726   1.399   1_565  A
C725        C730   1.402       .  A
C725        H732   1.085       .  S
C727        C728   1.407       .  A
C727        C734   1.515       .  S
C728        H733   1.081       .  S
C729        C730   1.426       .  A
C730        C731   1.520       .  S
C731        F737   1.382       .  S
C734        F738   1.378       .  S
C741        C746   1.403       .  A
C741        H748   1.084       .  S
C742        C743   1.413       .  A
C743        C744   1.409       .  A
C743        C750   1.513       .  S
C744        H749   1.082       .  S
C745        C746   1.424   1_545  A
C746        C747   1.520       .  S
C747        F751   1.385       .  S
C747        F753   1.381       .  S
C750        F754   1.376       .  S
C750        F756   1.385       .  S
C757        C758   1.402       .  A
C757        C762   1.408       .  A
C757        H764   1.076       .  S
C759        C760   1.405       .  A
C759        C766   1.522       .  S
C760        H765   1.083       .  S
C761        C762   1.414       .  A
C762        C763   1.517       .  S
C763        F767   1.384       .  S
C763        F768   1.383       .  S
C763        F769   1.380       .  S
C766        F770   1.379       .  S
C766        F771   1.378       .  S
C766        F772   1.385       .  S
O773        C781   1.263       .  A
O773       Co793   2.026       .  S
O774        C782   1.279       .  A
O774       Co794   2.039       .  S
O775        C783   1.262   1_655  A
O775       Co795   1.958       .  S
O776        C784   1.265       .  A
O776       Co796   1.881       .  S
O777       Co794   2.023       .  S
O778       Co793   2.113       .  S
O779       C1168   1.264       .  A
O779       Co796   1.967       .  S
O780       C1167   1.249   1_545  A
O780       Co795   1.960       .  S
C781       O1166   1.249       .  A
C781       C1144   1.484       .  S
C782       O1165   1.264   1_545  A
C782       C1128   1.476       .  S
C783       C1080   1.493       .  S
O785       Co793   1.890       .  S
O786       Co794   1.964       .  S
O787       C1186   1.278       .  A
O787       Co795   2.034       .  S
O788       C1187   1.264       .  A
O788       Co796   2.016       .  S
O789        C801   1.251   1_545  A
O789       Co794   1.967       .  S
O790        C800   1.265       .  A
O790       Co793   1.968       .  S
O791        C798   1.296       .  A
O791       Co796   2.110       .  S
O792        C799   1.267       .  A
O792       Co795   2.015       .  S
Co793       O797   2.021       .  S
Co795      O1183   2.018       .  S
O797      Co1181   2.018       .  S
C799       C1051   1.489       .  S
C800       O1173   1.278       .  A
C800       C1112   1.472       .  S
C801       O1174   1.264       .  A
C801       C1099   1.471       .  S
C802       C1083   1.481       .  S
C802        C803   1.404       .  A
C802        C807   1.403       .  A
C803        C804   1.402       .  A
C803        H808   1.084       .  S
C804       C1067   1.476       .  S
C804        C805   1.399       .  A
C805        C806   1.401       .  A
C805        H809   1.084       .  S
C806        C878   1.471       .  S
C806        C807   1.401       .  A
C807        H810   1.083       .  S
C811       C1147   1.477       .  S
C811       C1198   1.401       .  A
C811        C816   1.399       .  A
C812       C1197   1.401       .  A
C812       C1199   1.406       .  A
C812        H817   1.082   1_565  S
C813       C1131   1.495       .  S
C813       C1198   1.406       .  A
C813        C814   1.409       .  A
C814        C815   1.403       .  A
C814        H818   1.083       .  S
C815        C840   1.471       .  S
C815        C816   1.401       .  A
C816        H819   1.084       .  S
C820       C1115   1.500       .  S
C820       C1207   1.408       .  A
C820        C825   1.409       .  A
C821       C1206   1.408       .  A
C821       C1208   1.406       .  A
C821        H826   1.078       .  S
C822       C1096   1.499       .  S
C822       C1207   1.406       .  A
C822        C823   1.406       .  A
C823        C824   1.399       .  A
C823        H827   1.083       .  S
C824        C887   1.471       .  S
C824        C825   1.399       .  A
C825        H828   1.083       .  S
C829       C1048   1.480       .  S
C829        C830   1.404       .  A
C829        C834   1.403       .  A
C830        C831   1.403       .  A
C830        H835   1.084       .  S
C831       C1035   1.477       .  S
C831        C832   1.399       .  A
C832        C833   1.399       .  A
C832        H836   1.084       .  S
C833        C896   1.470       .  S
C833        C834   1.402       .  A
C834        H837   1.084       .  S
C838       C1019   1.474       .  S
C838        C839   1.398       .  A
C838        C843   1.404       .  A
C839        C840   1.397       .  A
C839        H844   1.084       .  S
C840       C1227   1.404       .  A
C841       C1226   1.404   1_545  A
C841        C842   1.409       .  A
C841        H845   1.084       .  S
C842       C1003   1.491       .  S
C842       C1229   1.405   1_545  A
C843       C1228   1.405       .  A
C843        H846   1.082       .  S
O847        C855   1.298       .  A
O847       Co867   2.122   1_554  S
O848        C856   1.277       .  A
O848       Co868   2.037   1_554  S
O849        C857   1.269       .  A
O849       Co869   1.971       .  S
O850        C858   1.257       .  A
O850       Co870   1.975       .  S
O851        C857   1.273       .  A
O851       Co868   2.021   1_554  S
O852        C858   1.261       .  A
O852       Co867   1.997   1_554  S
O853        C856   1.258       .  A
O853       Co870   1.958       .  S
O854        C855   1.265       .  A
O854       Co869   1.874       .  S
C855       C1016   1.498       .  S
C856       C1000   1.499       .  S
C857        C955   1.502       .  S
C858        C936   1.492       .  S
O859        C872   1.270       .  A
O859       Co867   1.974       .  S
O860        C873   1.260       .  A
O860       Co868   1.980       .  S
O861        C874   1.297       .  A
O861       Co869   2.122   1_556  S
O862        C875   1.274       .  A
O862       Co870   2.029   1_556  S
O863        C875   1.261       .  A
O863       Co868   1.972       .  S
O864        C874   1.263       .  A
O864       Co867   1.887       .  S
O865        C872   1.281       .  A
O865       Co870   2.021   1_556  S
O866        C873   1.264       .  A
O866       Co869   2.004   1_556  S
Co867       O871   2.005       .  S
Co868       O871   2.036       .  S
Co869       O871   2.002   1_554  S
Co870       O871   2.026   1_554  S
C872        C971   1.499       .  S
C873        C984   1.497       .  S
C874        C920   1.492       .  S
C875        C904   1.502       .  S
C876        C952   1.497       .  S
C876        C877   1.404       .  A
C877        H882   1.079       .  S
C878        C879   1.397   1_455  A
C879        C880   1.405       .  A
C879        H883   1.084       .  S
C880        C939   1.497       .  S
C880        C881   1.410   1_655  A
C881        H884   1.081       .  S
C885        C923   1.477       .  S
C885        C886   1.399       .  A
C885        C890   1.404       .  A
C886        C887   1.397       .  A
C886        H891   1.084       .  S
C887       C1274   1.401       .  A
C888       C1273   1.401   1_545  A
C888        C889   1.413       .  A
C888        H892   1.083       .  S
C889        C907   1.503       .  S
C889       C1276   1.408   1_545  A
C890       C1275   1.408       .  A
C890        H893   1.081       .  S
C894        C987   1.485       .  S
C894        C895   1.403       .  A
C895        H900   1.085       .  S
C896        C897   1.398       .  A
C897        C898   1.406       .  A
C897        H901   1.084       .  S
C898        C968   1.491       .  S
C898        C899   1.409       .  A
C899        H902   1.081       .  S
C903        C904   1.408       .  A
C903        C908   1.410       .  A
C903        H910   1.084       .  S
C904        C905   1.421       .  A
C905        C906   1.402       .  A
C905        C912   1.510       .  S
C906        C907   1.404       .  A
C906        H911   1.081       .  S
C907        C908   1.426       .  A
C908        C909   1.518       .  S
C909        F913   1.385       .  S
C909        F914   1.381       .  S
C909        F915   1.383       .  S
C912        F916   1.377       .  S
C912        F917   1.373       .  S
C912        F918   1.386       .  S
C919        C920   1.405       .  A
C919        C924   1.401       .  A
C919        H926   1.079       .  S
C920        C921   1.424       .  A
C921        C922   1.411       .  A
C921        C928   1.516       .  S
C922        C923   1.400       .  A
C922        H927   1.083       .  S
C923        C924   1.413       .  A
C924        C925   1.522       .  S
C925        F929   1.384       .  S
C925        F930   1.382       .  S
C925        F931   1.382       .  S
C928        F932   1.380       .  S
C928        F933   1.380       .  S
C928        F934   1.385       .  S
C935        C936   1.410       .  A
C935        C940   1.408       .  A
C935        H942   1.084       .  S
C936        C937   1.421       .  A
C937        C938   1.402       .  A
C937        C944   1.519       .  S
C938        C939   1.407       .  A
C938        H943   1.084       .  S
C939        C940   1.421       .  A
C940        C941   1.518       .  S
C941        F945   1.382       .  S
C941        F946   1.383       .  S
C941        F947   1.384       .  S
C944        F948   1.380       .  S
C944        F949   1.380       .  S
C944        F950   1.385       .  S
C951        C952   1.404       .  A
C951        C956   1.410       .  A
C951        H958   1.082       .  S
C952        C953   1.424       .  A
C953        C954   1.407       .  A
C953        C960   1.525       .  S
C954        C955   1.407       .  A
C954        H959   1.082       .  S
C955        C956   1.429       .  A
C956        C957   1.523       .  S
C957        F961   1.385       .  S
C957        F962   1.383       .  S
C957        F963   1.384   1_554  S
C960        F964   1.381       .  S
C960        F965   1.383       .  S
C960        F966   1.385       .  S
C967        C968   1.405       .  A
C967        C972   1.407       .  A
C967        H974   1.083       .  S
C968        C969   1.418       .  A
C969        C970   1.404       .  A
C969        C976   1.521       .  S
C970        C971   1.411       .  A
C970        H975   1.083       .  S
C971        C972   1.425       .  A
C972        C973   1.520       .  S
C973        F977   1.385       .  S
C973        F978   1.372       .  S
C973        F979   1.377       .  S
C976        F980   1.383       .  S
C976        F981   1.384       .  S
C976        F982   1.382       .  S
C983        C984   1.411       .  A
C983        C988   1.407       .  A
C983        H990   1.084       .  S
C984        C985   1.424       .  A
C985        C986   1.401       .  A
C985        C992   1.515       .  S
C986        C987   1.401       .  A
C986        H991   1.083       .  S
C987        C988   1.416       .  A
C988        C989   1.517       .  S
C989        F993   1.384       .  S
C989        F994   1.383       .  S
C989        F995   1.382       .  S
C992        F996   1.384       .  S
C992        F997   1.384       .  S
C992        F998   1.385       .  S
C999       C1000   1.407       .  A
C999       C1004   1.411       .  A
C999       H1006   1.083       .  S
C1000      C1001   1.429       .  A
C1001      C1002   1.406       .  A
C1001      C1008   1.520       .  S
C1002      C1003   1.399       .  A
C1002      H1007   1.083       .  S
C1003      C1004   1.419       .  A
C1004      C1005   1.517       .  S
C1005      F1009   1.385       .  S
C1005      F1010   1.383       .  S
C1005      F1011   1.381       .  S
C1008      F1012   1.383       .  S
C1008      F1013   1.384       .  S
C1008      F1014   1.385       .  S
C1015      C1016   1.411       .  A
C1015      C1020   1.402       .  A
C1015      H1022   1.082       .  S
C1016      C1017   1.427       .  A
C1017      C1018   1.410       .  A
C1017      C1024   1.517       .  S
C1018      C1019   1.398       .  A
C1018      H1023   1.083       .  S
C1019      C1020   1.409       .  A
C1020      C1021   1.519       .  S
C1021      F1025   1.384       .  S
C1021      F1026   1.381       .  S
C1021      F1027   1.383       .  S
C1024      F1028   1.381       .  S
C1024      F1029   1.380       .  S
C1024      F1030   1.385       .  S
C1031      C1032   1.406       .  A
C1031      C1036   1.404       .  A
C1031      H1038   1.083       .  S
C1033      C1034   1.409       .  A
C1033      C1040   1.519       .  S
C1034      H1039   1.083       .  S
C1035      C1036   1.413       .  A
C1036      C1037   1.520       .  S
C1037      F1041   1.384       .  S
C1037      F1042   1.382       .  S
C1037      F1043   1.384       .  S
C1040      F1044   1.379       .  S
C1040      F1045   1.379       .  S
C1040      F1046   1.385       .  S
C1047      C1048   1.402       .  A
C1047      C1052   1.410       .  A
C1047      H1054   1.083       .  S
C1049      C1050   1.404       .  A
C1049      C1056   1.521       .  S
C1050      H1055   1.082       .  S
C1051      C1052   1.423       .  A
C1052      C1053   1.520       .  S
C1053      F1057   1.385       .  S
C1053      F1058   1.383       .  S
C1053      F1059   1.383       .  S
C1056      F1060   1.381       .  S
C1056      F1061   1.383       .  S
C1056      F1062   1.385       .  S
C1063      C1068   1.404       .  A
C1063      H1070   1.082       .  S
C1064      C1065   1.426   1_455  A
C1065      C1066   1.410       .  A
C1065      C1072   1.514       .  S
C1066      C1067   1.398   1_655  A
C1066      H1071   1.083       .  S
C1068      C1069   1.520       .  S
C1069      F1073   1.384       .  S
C1069      F1074   1.383       .  S
C1069      F1075   1.382       .  S
C1072      F1076   1.383       .  S
C1072      F1077   1.383       .  S
C1072      F1078   1.384       .  S
C1079      C1080   1.409   1_655  A
C1079      C1084   1.402       .  A
C1079      H1086   1.081       .  S
C1081      C1082   1.410       .  A
C1081      C1088   1.521       .  S
C1082      H1087   1.083       .  S
C1083      C1084   1.414   1_455  A
C1084      C1085   1.523       .  S
C1085      F1089   1.385       .  S
C1085      F1090   1.381       .  S
C1085      F1091   1.383       .  S
C1088      F1092   1.383       .  S
C1088      F1093   1.383       .  S
C1088      F1094   1.385       .  S
C1095      C1096   1.412       .  A
C1095      C1100   1.407       .  A
C1095      H1102   1.081       .  S
C1096      C1483   1.424       .  A
C1097      C1482   1.424       .  A
C1097      C1098   1.403       .  A
C1097      C1104   1.520       .  S
C1098      C1099   1.400   1_545  A
C1098      H1103   1.085       .  S
C1099      C1486   1.413       .  A
C1100      C1485   1.413       .  A
C1100      C1101   1.519       .  S
C1101      F1105   1.385       .  S
C1101      F1106   1.379       .  S
C1101      F1493   1.383       .  S
C1104      F1494   1.383       .  S
C1104      F1109   1.382       .  S
C1104      F1110   1.385       .  S
F1107      C1487   1.383       .  S
F1108      C1490   1.383       .  S
C1111      C1112   1.399       .  A
C1111      C1116   1.402       .  A
C1111      H1118   1.085       .  S
C1112      C1499   1.410       .  A
C1113      C1498   1.410       .  A
C1113      C1114   1.407       .  A
C1113      C1120   1.515       .  S
C1114      C1501   1.413   1_545  A
C1114      H1119   1.081       .  S
C1115      C1500   1.413       .  A
C1115      C1116   1.426       .  A
C1116      C1117   1.520       .  S
C1117      F1507   1.385       .  S
C1117      F1508   1.384       .  S
C1117      F1123   1.382       .  S
C1120      F1124   1.378       .  S
C1120      F1511   1.383       .  S
C1120      F1512   1.385       .  S
F1121      C1503   1.385       .  S
F1122      C1503   1.384       .  S
F1125      C1506   1.383       .  S
F1126      C1506   1.385       .  S
C1127      C1514   1.400       .  A
C1127      C1132   1.403       .  A
C1127      H1134   1.084       .  S
C1128      C1513   1.400   1_545  A
C1128      C1129   1.413       .  A
C1129      C1130   1.409       .  A
C1129      C1136   1.513       .  S
C1130      C1517   1.409       .  A
C1130      H1135   1.082       .  S
C1131      C1516   1.409       .  A
C1131      C1132   1.424       .  A
C1132      C1133   1.520       .  S
C1133      F1137   1.385       .  S
C1133      F1524   1.383       .  S
C1133      F1139   1.381       .  S
C1136      F1140   1.376       .  S
C1136      F1527   1.383       .  S
C1136      F1142   1.385       .  S
F1138      C1519   1.383       .  S
F1141      C1522   1.383       .  S
C1143      C1144   1.402       .  A
C1143      C1148   1.408       .  A
C1143      H1150   1.076       .  S
C1144      C1531   1.427       .  A
C1145      C1530   1.427   1_545  A
C1145      C1146   1.405       .  A
C1145      C1152   1.522       .  S
C1146      C1533   1.396   1_545  A
C1146      H1151   1.083       .  S
C1147      C1532   1.396       .  A
C1147      C1148   1.414       .  A
C1148      C1149   1.517       .  S
C1149      F1153   1.384       .  S
C1149      F1154   1.383       .  S
C1149      F1155   1.380       .  S
C1152      F1156   1.379       .  S
C1152      F1157   1.378       .  S
C1152      F1158   1.385       .  S
O1159      C1167   1.263       .  A
O1159     Co1179   2.026       .  S
O1160      C1168   1.279       .  A
O1160     Co1180   2.039       .  S
O1161      C1169   1.262   1_655  A
O1161     Co1181   1.958       .  S
O1162      C1170   1.265       .  A
O1162     Co1182   1.881       .  S
O1163     Co1180   2.023       .  S
O1164     Co1179   2.113       .  S
O1165     Co1182   1.967       .  S
O1166     Co1181   1.960       .  S
C1167      C1530   1.484       .  S
C1168      C1514   1.476       .  S
C1169      C1466   1.493       .  S
O1171     Co1179   1.890       .  S
O1172     Co1180   1.964       .  S
O1173     Co1181   2.034       .  S
O1174     Co1182   2.016       .  S
O1175      C1187   1.251       .  A
O1175     Co1180   1.967       .  S
O1176      C1186   1.265   1_565  A
O1176     Co1179   1.968       .  S
O1177      C1184   1.296       .  A
O1177     Co1182   2.110       .  S
O1178      C1185   1.267       .  A
O1178     Co1181   2.015       .  S
Co1179     O1183   2.021   1_565  S
C1185      C1437   1.489       .  S
C1186      C1498   1.472       .  S
C1187      C1485   1.471       .  S
C1188      C1469   1.481       .  S
C1188      C1189   1.404       .  A
C1188      C1193   1.403       .  A
C1189      C1190   1.402       .  A
C1189      H1194   1.084       .  S
C1190      C1453   1.476       .  S
C1190      C1191   1.399       .  A
C1191      C1192   1.401       .  A
C1191      H1195   1.084       .  S
C1192      C1264   1.471       .  S
C1192      C1193   1.401       .  A
C1193      H1196   1.083       .  S
C1197      C1533   1.477       .  S
C1197      C1202   1.399       .  A
C1198      H1203   1.082       .  S
C1199      C1517   1.495   1_565  S
C1199      C1200   1.409       .  A
C1200      C1201   1.403       .  A
C1200      H1204   1.083       .  S
C1201      C1226   1.471       .  S
C1201      C1202   1.401       .  A
C1202      H1205   1.084       .  S
C1206      C1501   1.500       .  S
C1206      C1211   1.409       .  A
C1207      H1212   1.078       .  S
C1208      C1482   1.499   1_565  S
C1208      C1209   1.406       .  A
C1209      C1210   1.399       .  A
C1209      H1213   1.083   1_565  S
C1210      C1273   1.471       .  S
C1210      C1211   1.399       .  A
C1211      H1214   1.083       .  S
C1215      C1434   1.480       .  S
C1215      C1216   1.404       .  A
C1215      C1220   1.403       .  A
C1216      C1217   1.403       .  A
C1216      H1221   1.084       .  S
C1217      C1421   1.477       .  S
C1217      C1218   1.399       .  A
C1218      C1219   1.399       .  A
C1218      H1222   1.084       .  S
C1219      C1282   1.470       .  S
C1219      C1220   1.402       .  A
C1220      H1223   1.084       .  S
C1224      C1405   1.474       .  S
C1224      C1225   1.398       .  A
C1224      C1229   1.404       .  A
C1225      C1226   1.397       .  A
C1225      H1230   1.084       .  S
C1227      C1228   1.409       .  A
C1227      H1231   1.084       .  S
C1228      C1389   1.491       .  S
C1229      H1232   1.082       .  S
O1233      C1241   1.298       .  A
O1233     Co1253   2.122   1_554  S
O1234      C1242   1.277       .  A
O1234     Co1254   2.037   1_554  S
O1235      C1243   1.269       .  A
O1235     Co1255   1.971       .  S
O1236      C1244   1.257       .  A
O1236     Co1256   1.975       .  S
O1237      C1243   1.273       .  A
O1237     Co1254   2.021   1_554  S
O1238      C1244   1.261       .  A
O1238     Co1253   1.997   1_554  S
O1239      C1242   1.258       .  A
O1239     Co1256   1.958       .  S
O1240      C1241   1.265       .  A
O1240     Co1255   1.874       .  S
C1241      C1402   1.498       .  S
C1242      C1386   1.499       .  S
C1243      C1341   1.502       .  S
C1244      C1322   1.492       .  S
O1245      C1258   1.270       .  A
O1245     Co1253   1.974       .  S
O1246      C1259   1.260       .  A
O1246     Co1254   1.980       .  S
O1247      C1260   1.297       .  A
O1247     Co1255   2.122   1_556  S
O1248      C1261   1.274       .  A
O1248     Co1256   2.029   1_556  S
O1249      C1261   1.261       .  A
O1249     Co1254   1.972       .  S
O1250      C1260   1.263       .  A
O1250     Co1253   1.887       .  S
O1251      C1258   1.281       .  A
O1251     Co1256   2.021   1_556  S
O1252      C1259   1.264       .  A
O1252     Co1255   2.004   1_556  S
Co1253     O1257   2.005       .  S
Co1254     O1257   2.036       .  S
Co1255     O1257   2.002   1_554  S
Co1256     O1257   2.026   1_554  S
C1258      C1357   1.499       .  S
C1259      C1370   1.497       .  S
C1260      C1306   1.492       .  S
C1261      C1290   1.502       .  S
C1262      C1338   1.497       .  S
C1262      C1263   1.404       .  A
C1263      H1268   1.079       .  S
C1264      C1265   1.397   1_455  A
C1265      C1266   1.405       .  A
C1265      H1269   1.084       .  S
C1266      C1325   1.497       .  S
C1266      C1267   1.410   1_655  A
C1267      H1270   1.081       .  S
C1271      C1309   1.477       .  S
C1271      C1272   1.399       .  A
C1271      C1276   1.404       .  A
C1272      C1273   1.397       .  A
C1272      H1277   1.084       .  S
C1274      C1275   1.413       .  A
C1274      H1278   1.083       .  S
C1275      C1293   1.503       .  S
C1276      H1279   1.081       .  S
C1280      C1373   1.485       .  S
C1280      C1281   1.403       .  A
C1281      H1286   1.085       .  S
C1282      C1283   1.398       .  A
C1283      C1284   1.406       .  A
C1283      H1287   1.084       .  S
C1284      C1354   1.491       .  S
C1284      C1285   1.409       .  A
C1285      H1288   1.081       .  S
C1289      C1290   1.408       .  A
C1289      C1294   1.410       .  A
C1289      H1296   1.084       .  S
C1290      C1291   1.421       .  A
C1291      C1292   1.402       .  A
C1291      C1298   1.510       .  S
C1292      C1293   1.404       .  A
C1292      H1297   1.081       .  S
C1293      C1294   1.426       .  A
C1294      C1295   1.518       .  S
C1295      F1299   1.385       .  S
C1295      F1300   1.381       .  S
C1295      F1301   1.383       .  S
C1298      F1302   1.377       .  S
C1298      F1303   1.373       .  S
C1298      F1304   1.386       .  S
C1305      C1306   1.405       .  A
C1305      C1310   1.401       .  A
C1305      H1312   1.079       .  S
C1306      C1307   1.424       .  A
C1307      C1308   1.411       .  A
C1307      C1314   1.516       .  S
C1308      C1309   1.400       .  A
C1308      H1313   1.083       .  S
C1309      C1310   1.413       .  A
C1310      C1311   1.522       .  S
C1311      F1315   1.384       .  S
C1311      F1316   1.382       .  S
C1311      F1317   1.382       .  S
C1314      F1318   1.380       .  S
C1314      F1319   1.380       .  S
C1314      F1320   1.385       .  S
C1321      C1322   1.410       .  A
C1321      C1326   1.408       .  A
C1321      H1328   1.084       .  S
C1322      C1323   1.421       .  A
C1323      C1324   1.402       .  A
C1323      C1330   1.519       .  S
C1324      C1325   1.407       .  A
C1324      H1329   1.084       .  S
C1325      C1326   1.421       .  A
C1326      C1327   1.518       .  S
C1327      F1331   1.382       .  S
C1327      F1332   1.383       .  S
C1327      F1333   1.384       .  S
C1330      F1334   1.380       .  S
C1330      F1335   1.380       .  S
C1330      F1336   1.385       .  S
C1337      C1338   1.404       .  A
C1337      C1342   1.410       .  A
C1337      H1344   1.082       .  S
C1338      C1339   1.424       .  A
C1339      C1340   1.407       .  A
C1339      C1346   1.525       .  S
C1340      C1341   1.407       .  A
C1340      H1345   1.082       .  S
C1341      C1342   1.429       .  A
C1342      C1343   1.523       .  S
C1343      F1347   1.385       .  S
C1343      F1348   1.383       .  S
C1343      F1349   1.384   1_554  S
C1346      F1350   1.381       .  S
C1346      F1351   1.383       .  S
C1346      F1352   1.385       .  S
C1353      C1354   1.405       .  A
C1353      C1358   1.407       .  A
C1353      H1360   1.083       .  S
C1354      C1355   1.418       .  A
C1355      C1356   1.404       .  A
C1355      C1362   1.521       .  S
C1356      C1357   1.411       .  A
C1356      H1361   1.083       .  S
C1357      C1358   1.425       .  A
C1358      C1359   1.520       .  S
C1359      F1363   1.385       .  S
C1359      F1364   1.372       .  S
C1359      F1365   1.377       .  S
C1362      F1366   1.383       .  S
C1362      F1367   1.384       .  S
C1362      F1368   1.382       .  S
C1369      C1370   1.411       .  A
C1369      C1374   1.407       .  A
C1369      H1376   1.084       .  S
C1370      C1371   1.424       .  A
C1371      C1372   1.401       .  A
C1371      C1378   1.515       .  S
C1372      C1373   1.401       .  A
C1372      H1377   1.083       .  S
C1373      C1374   1.416       .  A
C1374      C1375   1.517       .  S
C1375      F1379   1.384       .  S
C1375      F1380   1.383       .  S
C1375      F1381   1.382       .  S
C1378      F1382   1.384       .  S
C1378      F1383   1.384       .  S
C1378      F1384   1.385       .  S
C1385      C1386   1.407       .  A
C1385      C1390   1.411       .  A
C1385      H1392   1.083       .  S
C1386      C1387   1.429       .  A
C1387      C1388   1.406       .  A
C1387      C1394   1.520       .  S
C1388      C1389   1.399       .  A
C1388      H1393   1.083       .  S
C1389      C1390   1.419       .  A
C1390      C1391   1.517       .  S
C1391      F1395   1.385       .  S
C1391      F1396   1.383       .  S
C1391      F1397   1.381       .  S
C1394      F1398   1.383       .  S
C1394      F1399   1.384       .  S
C1394      F1400   1.385       .  S
C1401      C1402   1.411       .  A
C1401      C1406   1.402       .  A
C1401      H1408   1.082       .  S
C1402      C1403   1.427       .  A
C1403      C1404   1.410       .  A
C1403      C1410   1.517       .  S
C1404      C1405   1.398       .  A
C1404      H1409   1.083       .  S
C1405      C1406   1.409       .  A
C1406      C1407   1.519       .  S
C1407      F1411   1.384       .  S
C1407      F1412   1.381       .  S
C1407      F1413   1.383       .  S
C1410      F1414   1.381       .  S
C1410      F1415   1.380       .  S
C1410      F1416   1.385       .  S
C1417      C1418   1.406       .  A
C1417      C1422   1.404       .  A
C1417      H1424   1.083       .  S
C1419      C1420   1.409       .  A
C1419      C1426   1.519       .  S
C1420      H1425   1.083       .  S
C1421      C1422   1.413       .  A
C1422      C1423   1.520       .  S
C1423      F1427   1.384       .  S
C1423      F1428   1.382       .  S
C1423      F1429   1.384       .  S
C1426      F1430   1.379       .  S
C1426      F1431   1.379       .  S
C1426      F1432   1.385       .  S
C1433      C1434   1.402       .  A
C1433      C1438   1.410       .  A
C1433      H1440   1.083       .  S
C1435      C1436   1.404       .  A
C1435      C1442   1.521       .  S
C1436      H1441   1.082       .  S
C1437      C1438   1.423       .  A
C1438      C1439   1.520       .  S
C1439      F1443   1.385       .  S
C1439      F1444   1.383       .  S
C1439      F1445   1.383       .  S
C1442      F1446   1.381       .  S
C1442      F1447   1.383       .  S
C1442      F1448   1.385       .  S
C1449      C1454   1.404       .  A
C1449      H1456   1.082       .  S
C1450      C1451   1.426   1_455  A
C1451      C1452   1.410       .  A
C1451      C1458   1.514       .  S
C1452      C1453   1.398   1_655  A
C1452      H1457   1.083       .  S
C1454      C1455   1.520       .  S
C1455      F1459   1.384       .  S
C1455      F1460   1.383       .  S
C1455      F1461   1.382       .  S
C1458      F1462   1.383       .  S
C1458      F1463   1.383       .  S
C1458      F1464   1.384       .  S
C1465      C1466   1.409   1_655  A
C1465      C1470   1.402       .  A
C1465      H1472   1.081       .  S
C1467      C1468   1.410       .  A
C1467      C1474   1.521       .  S
C1468      H1473   1.083       .  S
C1469      C1470   1.414   1_455  A
C1470      C1471   1.523       .  S
C1471      F1475   1.385       .  S
C1471      F1476   1.381       .  S
C1471      F1477   1.383       .  S
C1474      F1478   1.383       .  S
C1474      F1479   1.383       .  S
C1474      F1480   1.385       .  S
C1481      C1482   1.412   1_565  A
C1481      C1486   1.407       .  A
C1481      H1488   1.081       .  S
C1483      C1484   1.403       .  A
C1483      C1490   1.520       .  S
C1484      C1485   1.400       .  A
C1484      H1489   1.085       .  S
C1486      C1487   1.519       .  S
C1487      F1491   1.385       .  S
C1487      F1492   1.379       .  S
C1490      F1495   1.382       .  S
C1490      F1496   1.385       .  S
C1497      C1498   1.399   1_565  A
C1497      C1502   1.402       .  A
C1497      H1504   1.085       .  S
C1499      C1500   1.407       .  A
C1499      C1506   1.515       .  S
C1500      H1505   1.081       .  S
C1501      C1502   1.426       .  A
C1502      C1503   1.520       .  S
C1503      F1509   1.382       .  S
C1506      F1510   1.378       .  S
C1513      C1518   1.403       .  A
C1513      H1520   1.084       .  S
C1514      C1515   1.413       .  A
C1515      C1516   1.409       .  A
C1515      C1522   1.513       .  S
C1516      H1521   1.082       .  S
C1517      C1518   1.424   1_545  A
C1518      C1519   1.520       .  S
C1519      F1523   1.385       .  S
C1519      F1525   1.381       .  S
C1522      F1526   1.376       .  S
C1522      F1528   1.385       .  S
C1529      C1530   1.402       .  A
C1529      C1534   1.408       .  A
C1529      H1536   1.076       .  S
C1531      C1532   1.405       .  A
C1531      C1538   1.522       .  S
C1532      H1537   1.083       .  S
C1533      C1534   1.414       .  A
C1534      C1535   1.517       .  S
C1535      F1539   1.384       .  S
C1535      F1540   1.383       .  S
C1535      F1541   1.380       .  S
C1538      F1542   1.379       .  S
C1538      F1543   1.378       .  S
C1538      F1544   1.385       .  S
