geometry optimzed in LAMMPS
_audit_creation_date              2020-11-30 
_audit_creation_method            'lammps2cif' 
_symmetry_space_group_name_H-M    'P1' 
_symmetry_Int_Tables_number       1 
_symmetry_cell_setting            triclinic 
loop_ 
_symmetry_equiv_pos_as_xyz 
  x,y,z 
_cell_length_a                    25.42590897 
_cell_length_b                    25.379420335971624 
_cell_length_c                    25.485247196069402 
_cell_angle_alpha                 89.59410897766416 
_cell_angle_beta                  89.68213213429242 
_cell_angle_gamma                 90.15870862198021 
loop_ 
_atom_site_label 
_atom_site_type_symbol 
_atom_site_fract_x 
_atom_site_fract_y 
_atom_site_fract_z 
_atom_site_charge 
C1          C  0.38722702  0.38278291  0.38966160     0.42900
N2          N  0.44931642  0.43633825  0.40946210     0.01700
C3          C  0.60506283  0.43270244  0.63263006    -0.06100
H4          H  0.40832908  0.46165174  0.67031260     0.07200
C5          C  0.41770146  0.63353803  0.56693975    -0.06500
Co6        Co  0.50675006  0.40194897  0.50601694     0.74200
N7          N  0.45301870  0.44523058  0.60017276    -0.25700
Co8        Co  0.51148882  0.50305926  0.59615170     0.74100
C9          C  0.39685825  0.61706010  0.61789849     0.43000
N10         N  0.45083749  0.59228878  0.43624515     0.01400
N11         N  0.45525917  0.56203413  0.59386806     0.01500
N12         N  0.59953687  0.36606097  0.57444185    -0.46500
H13         H  0.40344557  0.33099362  0.46248263     0.07200
N14         N  0.45042689  0.40720533  0.56526122     0.01700
N15         N  0.56905628  0.56180638  0.59018603     0.01500
C16         C  0.62712736  0.61994032  0.61081684     0.43100
N17         N  0.45091484  0.55365753  0.40178208    -0.25100
C18         C  0.59710772  0.36016568  0.43708209    -0.06000
N19         N  0.41332472  0.42637726  0.37351047    -0.46200
N20         N  0.60350411  0.57467626  0.62677217    -0.46400
C21         C  0.62079130  0.37469015  0.38713287     0.42900
N22         N  0.56534262  0.40394281  0.56354475     0.01700
N23         N  0.56570122  0.55255794  0.40095600    -0.25100
N24         N  0.44912355  0.40136291  0.44806359    -0.25600
N25         N  0.56570373  0.59115804  0.43542270     0.01400
H26         H  0.61119155  0.53941934  0.33040594     0.07300
H27         H  0.60699726  0.67059765  0.53824779     0.07300
N28         N  0.56740986  0.44306018  0.59735645    -0.25700
N29         N  0.45374474  0.59692660  0.55516207    -0.25300
N30         N  0.56388393  0.43324372  0.40778179     0.01700
C31         C  0.38785991  0.38967438  0.61951223     0.43100
C32         C  0.41370722  0.56340049  0.36575656    -0.06500
N33         N  0.56730133  0.59691894  0.55178186    -0.25300
H34         H  0.40989216  0.66896829  0.54451707     0.07300
N35         N  0.41236759  0.37284391  0.57558534    -0.46500
H36         H  0.40633356  0.54007518  0.33120176     0.07300
C37         C  0.62795883  0.61170035  0.38198765     0.43000
C38         C  0.41121051  0.36585412  0.43899641    -0.06000
Co39       Co  0.50768124  0.49384408  0.40403161     0.73800
N40         N  0.41593804  0.62946583  0.42466290    -0.46200
C41         C  0.62678381  0.38205518  0.61684613     0.43200
N42         N  0.59799247  0.41989915  0.37061716    -0.46200
Co43       Co  0.50912026  0.59509471  0.49447948     0.73900
C44         C  0.60279395  0.63480232  0.56105514    -0.06600
C45         C  0.41510735  0.43746903  0.63616886    -0.06100
N46         N  0.56246572  0.39851687  0.44666620    -0.25600
N47         N  0.42236069  0.57309413  0.63257512    -0.46400
H48         H  0.61371138  0.45598857  0.66691191     0.07200
C49         C  0.60357370  0.56236710  0.36521187    -0.06500
Cl50       Cl  0.50883181  0.49850901  0.50012691    -0.49500
C51         C  0.38996436  0.61328375  0.38136425     0.43000
H52         H  0.60246411  0.32493053  0.46053925     0.07200
N53         N  0.60148421  0.62774720  0.42490247    -0.46200
C54         C  0.11332844  0.37708974  0.88131281     0.42900
N55         N  0.09380174  0.43136536  0.94203879     0.01700
C56         C  0.86447623  0.43648301  0.09001204    -0.06100
H57         H  0.83494489  0.46420636  0.89716923     0.07200
C58         C  0.94430881  0.63201469  0.90147943    -0.06500
Co59       Co  0.99553877  0.40109936  0.99938257     0.74200
N60         N  0.90392952  0.44639819  0.94218387    -0.25700
Co61       Co  0.90711348  0.50494534  0.99801835     0.74100
C62         C  0.89467013  0.61620860  0.87744656     0.43000
N63         N  0.06888038  0.58757745  0.93964284     0.01400
N64         N  0.91301460  0.56258554  0.93997995     0.01500
N65         N  0.92257404  0.36920658  0.08934623    -0.46500
H66         H  0.03990581  0.32634737  0.89832261     0.07200
N67         N  0.93749911  0.40689062  0.94209385     0.01700
N68         N  0.91152843  0.56396824  0.05410145     0.01500
C69         C  0.88786057  0.62244124  0.10984191     0.43100
N70         N  0.10242889  0.54803564  0.94064811    -0.25100
C71         C  0.06259935  0.36226555  0.09513502    -0.06000
N72         N  0.13025056  0.42029439  0.90658637    -0.46200
N73         N  0.87334909  0.57690520  0.08701475    -0.46400
C74         C  0.11209045  0.37871770  0.11905362     0.42900
N75         N  0.93648379  0.40679779  0.05585036     0.01700
N76         N  0.10195852  0.54855982  0.05395395    -0.25100
N77         N  0.05469220  0.39709995  0.94261289    -0.25600
N78         N  0.06841652  0.58814745  0.05438449     0.01400
H79         H  0.17196570  0.53127210  0.09791382     0.07300
H80         H  0.96166874  0.67282073  0.09266103     0.07300
N81         N  0.90283636  0.44626995  0.05509331    -0.25700
N82         N  0.95226610  0.59664308  0.93976597    -0.25300
N83         N  0.09321265  0.43192377  0.05624296     0.01700
C84         C  0.88238908  0.38845983  0.88149537     0.43100
C85         C  0.13853696  0.55553088  0.90293358    -0.06500
N86         N  0.95029886  0.59867408  0.05319199    -0.25300
H87         H  0.96889193  0.66599222  0.89331415     0.07300
N88         N  0.92588896  0.37115610  0.90645036    -0.46500
H89         H  0.17231353  0.53070023  0.89584220     0.07300
C90         C  0.12383820  0.60595434  0.11489806     0.43000
C91         C  0.06373968  0.36086498  0.90559574    -0.06000
Co92       Co  0.09864753  0.48989248  0.99821563     0.73800
N93         N  0.08046265  0.62284976  0.90273816    -0.46200
C94         C  0.87774026  0.38519320  0.11289289     0.43200
N95         N  0.12930122  0.42128987  0.09200962    -0.46200
Co96       Co  0.01024170  0.59386055  0.99691287     0.73900
C97         C  0.93891058  0.63722950  0.08723313    -0.06600
C98         C  0.86790177  0.43862463  0.90497027    -0.06100
N99         N  0.05398376  0.39775524  0.05678896    -0.25600
N100        N  0.87737607  0.57319078  0.90378409    -0.46400
H101        H  0.82957603  0.46016044  0.09444609     0.07200
C102        C  0.13834430  0.55626809  0.09076867    -0.06500
Cl103      Cl  0.00285323  0.49745421  0.99832651    -0.49500
C104        C  0.12365373  0.60490040  0.87751326     0.43000
H105        H  0.03867166  0.32787765  0.10344801     0.07200
N106        N  0.08042378  0.62381878  0.09008130    -0.46200
C107        C  0.76389093  0.24453522  0.74651680    -0.02100
C108        C  0.39100918  0.11922454  0.87471554     0.42900
N109        N  0.41005338  0.06812138  0.93983373     0.01700
C110        C  0.63912006  0.06757558  0.08682804    -0.06100
H111        H  0.66752647  0.03577966  0.88822573     0.07200
C112        C  0.55818141  0.86815120  0.90463267    -0.06500
Co113      Co  0.50899023  0.10159615  0.99368091     0.74200
N114        N  0.59963568  0.05467912  0.93554814    -0.25700
Co115      Co  0.59767339  0.99811340  0.99521437     0.74100
C116        C  0.60635760  0.88409317  0.87731356     0.43000
N117        N  0.43482488  0.91115599  0.94604921     0.01400
N118        N  0.59068899  0.93810980  0.94001132     0.01500
N119        N  0.58172030  0.13540286  0.08427976    -0.46500
H120        H  0.46531667  0.16971559  0.88847412     0.07200
N121        N  0.56636924  0.09444513  0.93478803     0.01700
N122        N  0.59389202  0.94135690  0.05487853     0.01500
C123        C  0.61457609  0.88765672  0.11694197     0.43100
N124        N  0.40069421  0.95025038  0.94523336    -0.25100
C125        C  0.44286547  0.14288349  0.08923023    -0.06000
N126        N  0.37420547  0.07728053  0.90340089    -0.46200
N127        N  0.63085733  0.93076276  0.08987146    -0.46400
C128        C  0.39411650  0.12687901  0.11595845     0.42900
N129        N  0.56924537  0.09856633  0.04971408     0.01700
N130        N  0.40339333  0.95409670  0.05962395    -0.25100
N131        N  0.44923684  0.10231937  0.93774666    -0.25600
N132        N  0.43781068  0.91527337  0.06038243     0.01400
H133        H  0.33354311  0.96921429  0.10567659     0.07300
H134        H  0.54017420  0.83759914  0.10352660     0.07300
N135        N  0.60262228  0.05879565  0.05006815    -0.25700
N136        N  0.55146795  0.90405038  0.94246123    -0.25300
N137        N  0.41198647  0.07168535  0.05478278     0.01700
C138        C  0.61852193  0.10944320  0.86939667     0.43100
C139        C  0.36418776  0.93985980  0.90877084    -0.06500
N140        N  0.55474627  0.90715340  0.05661318    -0.25300
H141        H  0.53363581  0.83391067  0.89842866     0.07300
N142        N  0.57724705  0.12885865  0.89681662    -0.46500
H143        H  0.32975573  0.96340819  0.90065122     0.07300
C144        C  0.38496215  0.89691022  0.12421453     0.43000
C145        C  0.44082486  0.13610065  0.89789101    -0.06000
Co146      Co  0.40547570  0.01130550  0.99985457     0.73800
N147        N  0.42334381  0.87352516  0.91220213    -0.46200
C148        C  0.62531072  0.11849614  0.10960856     0.43200
N149        N  0.37717741  0.08273817  0.09198026    -0.46200
Co150      Co  0.49463614  0.90855883  0.00147217     0.73900
C151        C  0.56420902  0.87178099  0.09461147    -0.06600
C152        C  0.63398731  0.06075809  0.89584951    -0.06100
N153        N  0.45085159  0.10629590  0.05220744    -0.25600
N154        N  0.62498379  0.92684426  0.90247280    -0.46400
H155        H  0.67271174  0.04270499  0.09452197     0.07200
C156        C  0.36823990  0.94576277  0.09840095    -0.06500
Cl157      Cl  0.50166073  0.00494042  0.99767725    -0.49500
C158        C  0.37994203  0.88937067  0.88649156     0.43000
H159        H  0.46728181  0.17721128  0.09552761     0.07200
N160        N  0.42743517  0.87978267  0.09736741    -0.46200
C161        C  0.25986207  0.74528798  0.75110227    -0.02100
C162        C  0.88610833  0.11189596  0.39400162     0.42900
N163        N  0.94177912  0.05021350  0.40941401     0.01700
C164        C  0.94918932  0.89310290  0.63305425    -0.06100
H165        H  0.97127593  0.09062684  0.66787624     0.07200
C166        C  0.14524283  0.08400338  0.55737336    -0.06500
Co167      Co  0.91285682  0.98917836  0.50589683     0.74200
N168        N  0.95661836  0.04536808  0.59805834    -0.25700
Co169      Co  0.01605019  0.98911165  0.59354612     0.74100
C170        C  0.13109529  0.10644313  0.60798609     0.43000
N171        N  0.09828492  0.05147921  0.43283397     0.01400
N172        N  0.07444602  0.04709264  0.58820980    -0.01700
N173        N  0.88238473  0.89501302  0.57514907    -0.46500
H174        H  0.83959280  0.09196394  0.46970864     0.07200
N175        N  0.91752871  0.04524117  0.56426210     0.01700
N176        N  0.07479264  0.93278422  0.58686584     0.01500
C177        C  0.13218911  0.87423573  0.60698549     0.43100
N178        N  0.05890139  0.05164844  0.39934860    -0.25100
C179        C  0.87418651  0.89637118  0.43746493    -0.06000
N180        N  0.92971142  0.08782135  0.37530131    -0.46200
N181        N  0.08770582  0.89805138  0.62340573    -0.46400
C182        C  0.88909320  0.87435233  0.38675034     0.42900
N183        N  0.91880718  0.93056710  0.56317430     0.01700
N184        N  0.05986077  0.93749878  0.39746662    -0.25100
N185        N  0.90838685  0.04779903  0.44908796    -0.25600
N186        N  0.09885227  0.93661813  0.43135181     0.01400
H187        H  0.04397872  0.89307802  0.32751042     0.07300
H188        H  0.18116215  0.89374088  0.53257214     0.07300
N189        N  0.95795223  0.93086190  0.59691534    -0.25700
N190        N  0.10820590  0.04758260  0.54874487    -0.25300
N191        N  0.94355500  0.93540707  0.40680390     0.01700
C192        C  0.89728691  0.10626721  0.61810862     0.43100
C193        C  0.06660592  0.09051585  0.36431869    -0.06500
N194        N  0.10868565  0.93419457  0.54753107    -0.25300
H195        H  0.17873215  0.09162228  0.53218345     0.07300
N196        N  0.88108753  0.08064145  0.57503093    -0.46500
H197        H  0.04185767  0.09887947  0.33090355     0.07300
C198        C  0.11794288  0.87596607  0.37675718     0.43000
C199        C  0.87218654  0.08547622  0.44325432    -0.06000
Co200      Co  0.00091021  0.99379858  0.40211109     0.73800
N201        N  0.13356249  0.08864361  0.42237627    -0.46200
C202        C  0.89949085  0.86866245  0.61793330     0.43200
N203        N  0.93213152  0.90085846  0.36990707    -0.46200
Co204      Co  0.10439648  0.99244209  0.48982191     0.73900
C205        C  0.14630570  0.89839523  0.55642648    -0.06600
C206        C  0.94727373  0.08264382  0.63390742    -0.06100
N207        N  0.91004200  0.93383379  0.44646034    -0.25600
N208        N  0.08687151  0.08164099  0.62471963    -0.46400
H209        H  0.97277290  0.88605432  0.66757566     0.07200
C210        C  0.06835047  0.90039498  0.36139211    -0.06500
Cl211      Cl  0.00856662  0.99113507  0.49788668    -0.49500
C212        C  0.11593568  0.11528588  0.37995304     0.43000
H213        H  0.84029200  0.88787237  0.46197147     0.07200
N214        N  0.13473555  0.90082347  0.42011365    -0.46200
C215        C  0.75307036  0.75258327  0.24570902    -0.02100
C216        C  0.25412629  0.25300512  0.25232298    -0.02100
C217        C  0.75819174  0.24397177  0.25376050    -0.02100
C218        C  0.25419528  0.74483594  0.24396178    -0.02100
C219        C  0.24847939  0.25062047  0.74467666    -0.02100
C220        C  0.75195725  0.75235567  0.75592084    -0.02100
C221        C  0.13284330  0.17276525  0.67754107    -0.11900
C222        C  0.16090659  0.14386659  0.64050630     0.05100
C223        C  0.21600277  0.14882192  0.63850540    -0.07200
C224        C  0.24156452  0.18162964  0.67395921    -0.07900
C225        C  0.21392965  0.21378024  0.70987489    -0.02500
C226        C  0.15764645  0.20692466  0.71241166     0.04400
N227        N  0.12411918  0.22953141  0.75171076     0.66900
H228        H  0.09056108  0.16796478  0.68041109     0.15800
H229        H  0.28408843  0.18359852  0.67201920     0.15500
N230        N  0.24719244  0.12045123  0.60153283     0.74600
O231        O  0.08762958  0.25975559  0.73703333    -0.38900
O232        O  0.11768824  0.20499636  0.79443197    -0.38800
O233        O  0.26553311  0.14450979  0.56193806    -0.39500
O234        O  0.26701723  0.07690808  0.61493891    -0.39600
C235        C  0.14565156  0.15122504  0.29390708    -0.11900
C236        C  0.14829741  0.15242312  0.34865440     0.05100
C237        C  0.18266113  0.18815635  0.37250486    -0.07200
C238        C  0.21457506  0.22097741  0.34161588    -0.07900
C239        C  0.21608150  0.21747375  0.28607530    -0.02500
C240        C  0.17830446  0.18310274  0.26256185     0.04400
N241        N  0.17111732  0.18053089  0.20694638     0.66900
H242        H  0.11858676  0.12460966  0.27491294     0.15800
H243        H  0.23699062  0.25005890  0.36240396     0.15500
N244        N  0.18437399  0.19311169  0.42830134     0.74600
O245        O  0.18942455  0.14163140  0.18235464    -0.38900
O246        O  0.13302619  0.20528784  0.18710383    -0.38800
O247        O  0.22227563  0.17329199  0.45326968    -0.39500
O248        O  0.15475732  0.22591514  0.45071764    -0.39600
C249        C  0.82955791  0.86909792  0.68563435    -0.11900
C250        C  0.86361843  0.84028163  0.65379558     0.05100
C251        C  0.86314791  0.78534185  0.65696519    -0.07200
C252        C  0.82780672  0.75991147  0.69083679    -0.07900
C253        C  0.79083388  0.78773214  0.72233419    -0.02500
C254        C  0.79407925  0.84430533  0.72043233     0.04400
N255        N  0.76491006  0.87835031  0.75425893     0.66900
H256        H  0.83130294  0.91174181  0.68424818     0.15800
H257        H  0.82788015  0.71726362  0.69111019     0.15500
N258        N  0.89737898  0.75457544  0.62488820     0.74600
O259        O  0.78081990  0.88560406  0.80041985    -0.38900
O260        O  0.73547394  0.91272143  0.73384534    -0.38800
O261        O  0.93848587  0.73509497  0.64450246    -0.39500
O262        O  0.88138432  0.73831441  0.58109215    -0.39600
C263        C  0.22515492  0.78261865  0.33395919    -0.11900
C264        C  0.21939166  0.78196257  0.27877317     0.05100
C265        C  0.18253184  0.81865343  0.25702163    -0.07200
C266        C  0.14869499  0.84689106  0.28965403    -0.07900
C267        C  0.15217747  0.84295399  0.34402962    -0.02500
C268        C  0.19150624  0.81143038  0.36604567     0.04400
N269        N  0.19640723  0.80605475  0.42141690     0.66900
H270        H  0.25524308  0.76071599  0.35364169     0.15800
H271        H  0.12069361  0.87334232  0.27201273     0.15500
N272        N  0.17774306  0.82805822  0.20195326     0.74600
O273        O  0.17137437  0.76964767  0.44450060    -0.38900
O274        O  0.23426251  0.82827033  0.44422552    -0.38800
O275        O  0.13539867  0.81489255  0.17989652    -0.39500
O276        O  0.20419070  0.86535151  0.18198660    -0.39600
C277        C  0.84483582  0.78180231  0.27983487    -0.11900
C278        C  0.78923343  0.78552925  0.28269607     0.05100
C279        C  0.76791499  0.81654297  0.32443110    -0.07200
C280        C  0.80120860  0.84416797  0.35799648    -0.07900
C281        C  0.85584385  0.84198701  0.35236820    -0.02500
C282        C  0.87765129  0.81032383  0.31304461     0.04400
N283        N  0.93334759  0.80478513  0.30760245     0.66900
H284        H  0.86419195  0.75565438  0.25316599     0.15800
H285        H  0.78376241  0.86797352  0.38839263     0.15500
N286        N  0.71265569  0.81893234  0.33541701     0.74600
O287        O  0.95656526  0.76840986  0.33217630    -0.38900
O288        O  0.95710220  0.82883620  0.27098153    -0.38800
O289        O  0.69482302  0.79221134  0.37354197    -0.39500
O290        O  0.68710259  0.85879844  0.32047229    -0.39600
C291        C  0.88041034  0.18173531  0.32606981    -0.11900
C292        C  0.85453738  0.14968119  0.36287026     0.05100
C293        C  0.79951920  0.15340832  0.36742190    -0.07200
C294        C  0.77155649  0.18442155  0.33198736    -0.07900
C295        C  0.79628739  0.21419588  0.29162475    -0.02500
C296        C  0.85292459  0.21574761  0.29227953     0.04400
N297        N  0.88440829  0.25264672  0.26284147     0.66900
H298        H  0.92298629  0.18163362  0.32463168     0.15800
H299        H  0.72911751  0.18326389  0.33483456     0.15500
N300        N  0.77044726  0.12448158  0.40615410     0.74600
O301        O  0.92135752  0.23530013  0.23463392    -0.38900
O302        O  0.88823833  0.29929106  0.27901399    -0.38800
O303        O  0.74779599  0.14918995  0.44260305    -0.39500
O304        O  0.75704184  0.07754441  0.39702998    -0.39600
C305        C  0.15778138  0.84586340  0.69656259    -0.11900
C306        C  0.16579728  0.84238077  0.64223560     0.05100
C307        C  0.20707628  0.81082921  0.62370904    -0.07200
C308        C  0.23745051  0.78185270  0.65874711    -0.07900
C309        C  0.22746750  0.78143413  0.71338904    -0.02500
C310        C  0.18885443  0.81757115  0.73207014     0.04400
N311        N  0.18055314  0.82674457  0.78684262     0.66900
H312        H  0.12791733  0.87186394  0.71202226     0.15800
H313        H  0.26976770  0.76047283  0.64176464     0.15500
N314        N  0.21820066  0.80566195  0.56920159     0.74600
O315        O  0.20483149  0.86445408  0.80788105    -0.38900
O316        O  0.13846302  0.81065080  0.80806693    -0.38800
O317        O  0.25893526  0.82768738  0.55080829    -0.39500
O318        O  0.19915402  0.76660488  0.54557423    -0.39600
C319        C  0.69222282  0.12297290  0.18102443    -0.11900
C320        C  0.65665383  0.14929232  0.14823474     0.05100
C321        C  0.65356511  0.20446457  0.15155985    -0.07200
C322        C  0.68665632  0.23190305  0.18557362    -0.07900
C323        C  0.72323366  0.20646191  0.21911868    -0.02500
C324        C  0.72537530  0.14998187  0.21597501     0.04400
N325        N  0.76169489  0.11833745  0.24503612     0.66900
H326        H  0.69517503  0.08045022  0.17901697     0.15800
H327        H  0.68331862  0.27444592  0.18612944     0.15500
N328        N  0.61801508  0.23388168  0.11963153     0.74600
O329        O  0.74409904  0.08163026  0.27391364    -0.38900
O330        O  0.80937134  0.11712254  0.23121209    -0.38800
O331        O  0.57501553  0.24929479  0.13904879    -0.39500
O332        O  0.63413096  0.25370781  0.07692012    -0.39600
C333        C  0.29395969  0.16371820  0.22098239    -0.11900
C334        C  0.29340034  0.21951450  0.21818867     0.05100
C335        C  0.33258191  0.24363253  0.18518205    -0.07200
C336        C  0.36546393  0.21276800  0.15345228    -0.07900
C337        C  0.36197742  0.15775585  0.15364875    -0.02500
C338        C  0.32652067  0.13325062  0.18870183     0.04400
N339        N  0.32443004  0.07715524  0.19368875     0.66900
H340        H  0.26998831  0.14251211  0.24901521     0.15800
H341        H  0.39329362  0.23240198  0.12763532     0.15500
N342        N  0.34030474  0.29950891  0.18326686     0.74600
O343        O  0.35435723  0.05428032  0.22588299    -0.38900
O344        O  0.28611894  0.05224311  0.17457651    -0.38800
O345        O  0.37756792  0.31898834  0.20934263    -0.39500
O346        O  0.32313318  0.32516642  0.14441345    -0.39600
C347        C  0.31903057  0.82533330  0.12629783    -0.11900
C348        C  0.35044095  0.86055248  0.15394718     0.05100
C349        C  0.34898978  0.85968130  0.20882012    -0.07200
C350        C  0.31717710  0.82287002  0.23518875    -0.07900
C351        C  0.28698680  0.78427582  0.20846780    -0.02500
C352        C  0.28667399  0.78821242  0.15197598     0.04400
N353        N  0.25290436  0.75787358  0.11886824     0.66900
H354        H  0.31898259  0.82721194  0.08379842     0.15800
H355        H  0.31742445  0.82328085  0.27767206     0.15500
N356        N  0.38068348  0.89503993  0.23853682     0.74600
O357        O  0.20680415  0.77398100  0.11067066    -0.38900
O358        O  0.27359510  0.72825899  0.08499039    -0.38800
O359        O  0.35953192  0.93414259  0.26039042    -0.39500
O360        O  0.42633004  0.88121592  0.25196691    -0.39600
C361        C  0.67431898  0.81532740  0.87417204    -0.11900
C362        C  0.64062115  0.84888771  0.84703216     0.05100
C363        C  0.64002968  0.84790186  0.79217780    -0.07200
C364        C  0.67564510  0.81588816  0.76515076    -0.07900
C365        C  0.71324433  0.78419329  0.79146940    -0.02500
C366        C  0.70895773  0.78151807  0.84788308     0.04400
N367        N  0.73408255  0.74231037  0.87988749     0.66900
H368        H  0.67233640  0.81397581  0.91664288     0.15800
H369        H  0.67510846  0.81718288  0.72269378     0.15500
N370        N  0.60363280  0.87938750  0.76326444     0.74600
O371        O  0.76294173  0.75722865  0.91708377    -0.38900
O372        O  0.71279421  0.69758080  0.88413240    -0.38800
O373        O  0.61790985  0.92362362  0.74524280    -0.39500
O374        O  0.56112874  0.85913011  0.74780776    -0.39600
C375        C  0.34201272  0.21447158  0.76895938    -0.11900
C376        C  0.28649202  0.21201949  0.77574777     0.05100
C377        C  0.26782325  0.17042627  0.80931623    -0.07200
C378        C  0.30279374  0.14064449  0.83967922    -0.07900
C379        C  0.35709166  0.14870460  0.83724789    -0.02500
C380        C  0.37680403  0.18498864  0.80001973     0.04400
N381        N  0.43207660  0.19153327  0.79170799     0.66900
H382        H  0.35994857  0.23919801  0.73937254     0.15800
H383        H  0.28672079  0.11120167  0.86623250     0.15500
N384        N  0.21351417  0.15690216  0.81392218     0.74600
O385        O  0.45554682  0.16174944  0.75986446    -0.38900
O386        O  0.45407037  0.23371140  0.80584818    -0.38800
O387        O  0.19581023  0.12179286  0.78389836    -0.39500
O388        O  0.19120749  0.16325911  0.85780493    -0.39600
C389        C  0.64707622  0.79993510  0.14539203    -0.11900
C390        C  0.64930337  0.85475091  0.15007894     0.05100
C391        C  0.68681030  0.87697917  0.18360020    -0.07200
C392        C  0.72063203  0.84437101  0.21238189    -0.07900
C393        C  0.71699869  0.78860084  0.21078210    -0.02500
C394        C  0.68074743  0.76698043  0.17385967     0.04400
N395        N  0.67790815  0.71168000  0.16344888     0.66900
H396        H  0.61999075  0.78221092  0.11804912     0.15800
H397        H  0.74983359  0.86388209  0.23578514     0.15500
N398        N  0.68973564  0.93274311  0.19059900     0.74600
O399        O  0.70261866  0.69416814  0.12421657    -0.38900
O400        O  0.63900574  0.68570634  0.18063993    -0.38800
O401        O  0.66307757  0.95392365  0.22660579    -0.39500
O402        O  0.72582275  0.95877745  0.16814079    -0.39600
C403        C  0.35414589  0.85774727  0.79848351    -0.11900
C404        C  0.34842006  0.85463572  0.85284217     0.05100
C405        C  0.31269959  0.81836346  0.87455602    -0.07200
C406        C  0.28354406  0.78536557  0.84186716    -0.07900
C407        C  0.29121551  0.78466154  0.78670308    -0.02500
C408        C  0.32601607  0.82405685  0.76528077     0.04400
N409        N  0.33246266  0.83213182  0.70995937     0.66900
H410        H  0.38072188  0.88667122  0.78151379     0.15800
H411        H  0.25444425  0.76085987  0.86085905     0.15500
N412        N  0.30592614  0.81412570  0.93013378     0.74600
O413        O  0.30726637  0.86913852  0.68844045    -0.38900
O414        O  0.37406884  0.81629812  0.68801655    -0.38800
O415        O  0.26534378  0.83299091  0.95152973    -0.39500
O416        O  0.33524064  0.78363973  0.95606367    -0.39600
C417        C  0.79317773  0.20517931  0.65737824    -0.11900
C418        C  0.79683399  0.20510524  0.71277943     0.05100
C419        C  0.82947044  0.16515688  0.73565555    -0.07200
C420        C  0.86338663  0.13560050  0.70408287    -0.07900
C421        C  0.86278518  0.14043313  0.64957777    -0.02500
C422        C  0.82583336  0.17404845  0.62615125     0.04400
N423        N  0.82047231  0.17688743  0.57045537     0.66900
H424        H  0.76468212  0.22873641  0.63699226     0.15800
H425        H  0.88875079  0.10683945  0.72250102     0.15500
N426        N  0.82800980  0.15200283  0.79032962     0.74600
O427        O  0.78515553  0.14994021  0.54864340    -0.38900
O428        O  0.84223372  0.21407487  0.54531842    -0.38800
O429        O  0.79544097  0.11738583  0.80542662    -0.39500
O430        O  0.86921207  0.15817756  0.81698235    -0.39600
C431        C  0.69590672  0.17112221  0.75708702    -0.11900
C432        C  0.72858613  0.20827016  0.78297690     0.05100
C433        C  0.72603443  0.20805859  0.83944575    -0.07200
C434        C  0.68865948  0.17653972  0.86565622    -0.07900
C435        C  0.65494768  0.14301179  0.83872350    -0.02500
C436        C  0.65934805  0.13950732  0.78408887     0.04400
N437        N  0.62593837  0.10508077  0.75516529     0.66900
H438        H  0.69715903  0.16836878  0.71473546     0.15800
H439        H  0.68708304  0.17701924  0.90814438     0.15500
N440        N  0.76203962  0.23583973  0.87227620     0.74600
O441        O  0.58226334  0.12181067  0.73882161    -0.38900
O442        O  0.64430977  0.06276221  0.73706225    -0.38800
O443        O  0.74375407  0.26768215  0.90549088    -0.39500
O444        O  0.80687063  0.21645418  0.88045516    -0.39600
C445        C  0.14235266  0.34921645  0.20700680    -0.11900
C446        C  0.14650310  0.34639918  0.15255340     0.05100
C447        C  0.18423159  0.31322983  0.13035561    -0.07200
C448        C  0.21739822  0.28342166  0.16221204    -0.07900
C449        C  0.21630938  0.28724287  0.21756270    -0.02500
C450        C  0.17608804  0.32011862  0.23966159     0.04400
N451        N  0.16736873  0.32364900  0.29505059     0.66900
H452        H  0.11267111  0.37418312  0.22444220     0.15800
H453        H  0.24287675  0.25626845  0.14226653     0.15500
N454        N  0.18945915  0.30916525  0.07491765     0.74600
O455        O  0.18272412  0.36436614  0.31868423    -0.38900
O456        O  0.13018944  0.29714015  0.31506142    -0.38800
O457        O  0.22520016  0.33522156  0.05198966    -0.39500
O458        O  0.16830348  0.27080310  0.05191058    -0.39600
C459        C  0.21098365  0.63155180  0.15119348    -0.11900
C460        C  0.15618964  0.63762150  0.15073270     0.05100
C461        C  0.13298885  0.67408301  0.18454725    -0.07200
C462        C  0.16452973  0.70616358  0.21535479    -0.07900
C463        C  0.22019635  0.70582205  0.21154660    -0.02500
C464        C  0.24315473  0.66430605  0.18150258     0.04400
N465        N  0.29824998  0.65217798  0.18376738     0.66900
H466        H  0.22939939  0.60178121  0.12710919     0.15800
H467        H  0.14386722  0.72995852  0.24344711     0.15500
N468        N  0.07712388  0.67715416  0.19035517     0.74600
O469        O  0.31259650  0.60752757  0.20034431    -0.38900
O470        O  0.33214401  0.68290716  0.16401386    -0.38800
O471        O  0.05465349  0.65083565  0.22623639    -0.39500
O472        O  0.05238768  0.71376921  0.16770363    -0.39600
C473        C  0.78114881  0.66318612  0.20547959    -0.11900
C474        C  0.78554032  0.71872865  0.20592411     0.05100
C475        C  0.81876101  0.74187452  0.16658308    -0.07200
C476        C  0.85288209  0.71019901  0.13692381    -0.07900
C477        C  0.85191895  0.65519521  0.14180974    -0.02500
C478        C  0.81380539  0.63194743  0.17464797     0.04400
N479        N  0.80908260  0.57617858  0.17924501     0.66900
H480        H  0.75214837  0.64254916  0.22893766     0.15800
H481        H  0.87904017  0.72880274  0.10861447     0.15500
N482        N  0.81618468  0.79680497  0.15380579     0.74600
O483        O  0.83024239  0.55336564  0.21779007    -0.38900
O484        O  0.77372389  0.55271717  0.15380407    -0.38800
O485        O  0.84609697  0.82914383  0.17635426    -0.39500
O486        O  0.79296265  0.81087787  0.11238182    -0.39600
C487        C  0.21180731  0.63649373  0.84937767    -0.11900
C488        C  0.15725158  0.63777885  0.84305463     0.05100
C489        C  0.13574053  0.67123558  0.80489868    -0.07200
C490        C  0.16858775  0.70454414  0.77548349    -0.07900
C491        C  0.22369875  0.70703071  0.78383437    -0.02500
C492        C  0.24507764  0.66952868  0.82001945     0.04400
N493        N  0.30055286  0.66318651  0.82703767     0.66900
H494        H  0.22907420  0.60993471  0.87780082     0.15800
H495        H  0.15003211  0.72643493  0.74442876     0.15500
N496        N  0.08090353  0.66930678  0.79292900     0.74600
O497        O  0.32146643  0.68042762  0.86831733    -0.38900
O498        O  0.32334503  0.62646513  0.80281281    -0.38800
O499        O  0.05137353  0.70660104  0.80687438    -0.39500
O500        O  0.06457781  0.63654636  0.75970213    -0.39600
C501        C  0.78923745  0.66060442  0.78250212    -0.11900
C502        C  0.78980698  0.71615039  0.78839960     0.05100
C503        C  0.83101692  0.73743654  0.82021472    -0.07200
C504        C  0.86468032  0.70405243  0.84792753    -0.07900
C505        C  0.86050667  0.64938909  0.84442602    -0.02500
C506        C  0.82289891  0.62763691  0.81081369     0.04400
N507        N  0.81978028  0.57200061  0.80302977     0.66900
H508        H  0.76423893  0.64143275  0.75493375     0.15800
H509        H  0.89421418  0.72151993  0.87267758     0.15500
N510        N  0.84209501  0.79267434  0.82304925     0.74600
O511        O  0.78447789  0.54577241  0.82648707    -0.38900
O512        O  0.84392237  0.55169838  0.76483268    -0.38800
O513        O  0.83108540  0.81672454  0.86481287    -0.39500
O514        O  0.87888357  0.81078369  0.79470789    -0.39600
C515        C  0.21554070  0.28018005  0.83573357    -0.11900
C516        C  0.21371121  0.28556628  0.78065918     0.05100
C517        C  0.18079172  0.32653063  0.75995704    -0.07200
C518        C  0.14761948  0.35505779  0.79337036    -0.07900
C519        C  0.14713144  0.34536967  0.84722251    -0.02500
C520        C  0.18217812  0.30864513  0.86842459     0.04400
N521        N  0.18565745  0.30071829  0.92363342     0.66900
H522        H  0.24345058  0.25496157  0.85476169     0.15800
H523        H  0.12252841  0.38534711  0.77712875     0.15500
N524        N  0.18168860  0.34145882  0.70564405     0.74600
O525        O  0.15882623  0.26433841  0.94465468    -0.38900
O526        O  0.22507457  0.31880346  0.94738018    -0.38800
O527        O  0.14689484  0.32397512  0.67522735    -0.39500
O528        O  0.20663720  0.38250940  0.69227458    -0.39600
C529        C  0.85122401  0.29545438  0.14202777    -0.11900
C530        C  0.84415450  0.35004005  0.14541492     0.05100
C531        C  0.80353792  0.36897550  0.17758402    -0.07200
C532        C  0.77512496  0.33436655  0.20948901    -0.07900
C533        C  0.78689345  0.28006088  0.21257878    -0.02500
C534        C  0.82123134  0.26033540  0.17269152     0.04400
N535        N  0.82368916  0.20564694  0.15949287     0.66900
H536        H  0.87882954  0.27958748  0.11386705     0.15800
H537        H  0.74328382  0.35147988  0.23136018     0.15500
N538        N  0.79136416  0.42358641  0.18050640     0.74600
O539        O  0.79062227  0.18837019  0.12707373    -0.38900
O540        O  0.86704682  0.18191279  0.16324344    -0.38800
O541        O  0.75027285  0.44021476  0.15838819    -0.39500
O542        O  0.81106589  0.44994567  0.21724731    -0.39600
C543        C  0.88071833  0.32015675  0.81371930    -0.11900
C544        C  0.85266767  0.35615624  0.84393312     0.05100
C545        C  0.79777263  0.35903959  0.83834033    -0.07200
C546        C  0.77200138  0.32325522  0.80599223    -0.07900
C547        C  0.79909312  0.28355472  0.77797642    -0.02500
C548        C  0.85568229  0.28559289  0.77928527     0.04400
N549        N  0.88964146  0.25731106  0.74432410     0.66900
H550        H  0.92327839  0.32010711  0.81547727     0.15800
H551        H  0.72948792  0.32487322  0.80491238     0.15500
N552        N  0.76676321  0.39568375  0.86737879     0.74600
O553        O  0.89353337  0.27241259  0.69724436    -0.38900
O554        O  0.92714509  0.23100097  0.76333336    -0.38800
O555        O  0.74425611  0.43294491  0.84345607    -0.39500
O556        O  0.75301881  0.38461328  0.91382499    -0.39600
C557        C  0.71782219  0.72738879  0.66218751    -0.11900
C558        C  0.71541965  0.71968565  0.71751833     0.05100
C559        C  0.67696874  0.68236737  0.73563662    -0.07200
C560        C  0.65022431  0.65002221  0.70019859    -0.07900
C561        C  0.65777185  0.65467511  0.64603625    -0.02500
C562        C  0.69142133  0.69454249  0.62704948     0.04400
N563        N  0.70178576  0.70071334  0.57216900     0.66900
H564        H  0.74055855  0.75872795  0.64454159     0.15800
H565        H  0.62231188  0.62147314  0.71555279     0.15500
N566        N  0.66411620  0.67566482  0.78982757     0.74600
O567        O  0.68413699  0.74049794  0.54815192    -0.38900
O568        O  0.73806993  0.67407498  0.55136317    -0.38800
O569        O  0.62753802  0.70335637  0.80868925    -0.39500
O570        O  0.67379470  0.63175502  0.81123120    -0.39600
C571        C  0.34832878  0.36143760  0.70462662    -0.11900
C572        C  0.34887105  0.35833192  0.64985966     0.05100
C573        C  0.31311258  0.32437475  0.62523052    -0.07200
C574        C  0.27936372  0.29262260  0.65542436    -0.07900
C575        C  0.28187073  0.29100265  0.71103826    -0.02500
C576        C  0.31539345  0.32910626  0.73523158     0.04400
N577        N  0.31724447  0.33553375  0.79097063     0.66900
H578        H  0.37469618  0.38823452  0.72428508     0.15800
H579        H  0.25057114  0.27040003  0.63409464     0.15500
N580        N  0.30937337  0.32259168  0.56931837     0.74600
O581        O  0.28986146  0.37142229  0.81143861    -0.38900
O582        O  0.35672813  0.31872701  0.81569170    -0.38800
O583        O  0.32870456  0.28402712  0.54497558    -0.39500
O584        O  0.27784189  0.35297067  0.54601825    -0.39600
C585        C  0.70827360  0.35064344  0.35326655    -0.11900
C586        C  0.65449228  0.34090431  0.35477316     0.05100
C587        C  0.63440580  0.29667466  0.32896025    -0.07200
C588        C  0.66763401  0.26570414  0.29801111    -0.07900
C589        C  0.72202982  0.27730267  0.29192092    -0.02500
C590        C  0.74231424  0.31825586  0.32467818     0.04400
N591        N  0.79725894  0.32799721  0.33021449     0.66900
H592        H  0.72436556  0.38273485  0.37599169     0.15800
H593        H  0.65008496  0.23147175  0.28029680     0.15500
N594        N  0.58039746  0.28191036  0.33470954     0.74600
O595        O  0.81567365  0.37113666  0.31320273    -0.38900
O596        O  0.82099797  0.30494882  0.36715778    -0.38800
O597        O  0.54865550  0.29139801  0.29798846    -0.39500
O598        O  0.56711893  0.25043462  0.37100881    -0.39600
C599        C  0.34514238  0.71437356  0.28037784    -0.11900
C600        C  0.28989948  0.70870530  0.27996530     0.05100
C601        C  0.26857349  0.66803203  0.31350545    -0.07200
C602        C  0.30151522  0.63793651  0.34641910    -0.07900
C603        C  0.35565849  0.64716011  0.34825760    -0.02500
C604        C  0.37700087  0.68586035  0.31490631     0.04400
N605        N  0.43199258  0.69540928  0.31343853     0.66900
H606        H  0.36528464  0.74023667  0.25352949     0.15800
H607        H  0.28451219  0.60717481  0.37075967     0.15500
N608        N  0.21365958  0.65565239  0.31435885     0.74600
O609        O  0.45686583  0.68220544  0.27275751    -0.38900
O610        O  0.45050647  0.73097762  0.34236728    -0.38800
O611        O  0.19804544  0.61524900  0.29034030    -0.39500
O612        O  0.18520812  0.67393577  0.35058510    -0.39600
C613        C  0.71441309  0.64678826  0.35187242    -0.11900
C614        C  0.65970677  0.64772352  0.34920158     0.05100
C615        C  0.63549418  0.68576592  0.31772903    -0.07200
C616        C  0.66536062  0.71978082  0.28654834    -0.07900
C617        C  0.72064191  0.71659524  0.28429363    -0.02500
C618        C  0.74510960  0.68145351  0.32120276     0.04400
N619        N  0.80047318  0.68270672  0.33103928     0.66900
H620        H  0.73350775  0.61968854  0.37870737     0.15800
H621        H  0.64391769  0.74946217  0.26510842     0.15500
N622        N  0.57990804  0.68966535  0.31567947     0.74600
O623        O  0.81640065  0.70132167  0.37393455    -0.38900
O624        O  0.83105882  0.65395240  0.30476121    -0.38800
O625        O  0.55721970  0.72360973  0.34366584    -0.39500
O626        O  0.55704776  0.67188600  0.27579450    -0.39600
C627        C  0.71503068  0.35163807  0.64470064    -0.11900
C628        C  0.66055892  0.34747127  0.64896583     0.05100
C629        C  0.63897008  0.31226007  0.68574482    -0.07200
C630        C  0.67186462  0.28128519  0.71718160    -0.07900
C631        C  0.72760262  0.28152627  0.71136516    -0.02500
C632        C  0.74853008  0.32011968  0.67531829     0.04400
N633        N  0.80366543  0.32930562  0.66931525     0.66900
H634        H  0.73193803  0.38009119  0.61757996     0.15800
H635        H  0.65219742  0.25831351  0.74697588     0.15500
N636        N  0.58326453  0.30789071  0.69222382     0.74600
O637        O  0.82529430  0.31661047  0.62654724    -0.38900
O638        O  0.82436036  0.36562322  0.69584045    -0.38800
O639        O  0.55891497  0.27077786  0.67025698    -0.39500
O640        O  0.56030999  0.33469514  0.72694953    -0.39600
C641        C  0.35199771  0.70939222  0.72451481    -0.11900
C642        C  0.29662033  0.70766498  0.71923161     0.05100
C643        C  0.27576076  0.66941231  0.68365061    -0.07200
C644        C  0.30931611  0.64111568  0.65071555    -0.07900
C645        C  0.36351210  0.64766648  0.65323887    -0.02500
C646        C  0.38513954  0.68065370  0.69142796     0.04400
N647        N  0.44084786  0.68598821  0.69657062     0.66900
H648        H  0.37054024  0.73300987  0.75415613     0.15800
H649        H  0.29276942  0.61359238  0.62298246     0.15500
N650        N  0.22064457  0.65871792  0.67961709     0.74600
O651        O  0.46507569  0.72007396  0.66937421    -0.38900
O652        O  0.46402984  0.66355826  0.73420785    -0.38800
O653        O  0.19590260  0.67620025  0.64042745    -0.39500
O654        O  0.20229378  0.61905290  0.70369348    -0.39600
C655        C  0.28998121  0.34338487  0.28442997    -0.11900
C656        C  0.29043821  0.28762901  0.28773202     0.05100
C657        C  0.32751827  0.26453270  0.32309107    -0.07200
C658        C  0.35671259  0.29622230  0.35697970    -0.07900
C659        C  0.35306525  0.35113437  0.35523214    -0.02500
C660        C  0.32007055  0.37475740  0.31787041     0.04400
N661        N  0.31569906  0.43079070  0.31400557     0.66900
H662        H  0.26700889  0.36378026  0.25531575     0.15800
H663        H  0.38393015  0.27744595  0.38365994     0.15500
N664        N  0.33712500  0.20897680  0.32490911     0.74600
O665        O  0.33991247  0.45521340  0.27793011    -0.38900
O666        O  0.28035745  0.45414074  0.33978203    -0.38800
O667        O  0.37599184  0.19123340  0.29966464    -0.39500
O668        O  0.31968727  0.18244673  0.36332009    -0.39600
loop_ 
_geom_bond_atom_site_label_1 
_geom_bond_atom_site_label_2 
_geom_bond_distance 
_geom_bond_site_symmetry_2 
_ccdc_geom_bond_type 
C1           N19   1.349       .  A
C1           C38   1.463       .  S
C1          C659   1.478       .  S
N2           N19   1.324       .  A
N2           N24   1.320       .  A
N2          Co39   2.082       .  S
C3           N28   1.342       .  A
C3           C41   1.459       .  S
C3           H48   1.082       .  S
H4           C45   1.082       .  S
C5           N29   1.341       .  A
C5            C9   1.458       .  S
C5           H34   1.081       .  S
Co6          N24   2.086       .  S
Co6          N14   2.080       .  S
Co6          N46   2.069       .  S
Co6          N22   2.097       .  S
Co6         Cl50   2.455       .  S
N7           C45   1.340       .  A
N7           N14   1.319       .  A
N7           Co8   2.088       .  S
Co8          N11   2.073       .  S
Co8          N28   2.086       .  S
Co8          N15   2.091       .  S
Co8         Cl50   2.452       .  S
C9           N47   1.344       .  A
C9          C645   1.462       .  S
N10          N17   1.321       .  A
N10          N40   1.330       .  A
N10         Co43   2.105       .  S
N11          N29   1.322       .  A
N11          N47   1.322       .  A
N12          C41   1.351       .  A
N12          N22   1.327       .  A
H13          C38   1.082       .  S
N14          N35   1.325       .  A
N15          N33   1.320       .  A
N15          N20   1.325       .  A
C16          N20   1.354       .  A
C16          C44   1.462       .  S
C16         C561   1.485       .  S
N17          C32   1.344       .  A
N17         Co39   2.098       .  S
C18          N46   1.337       .  A
C18          C21   1.450       .  S
C18          H52   1.081       .  S
C21          N42   1.352       .  A
C21         C586   1.468       .  S
N22          N28   1.320       .  A
N23          C49   1.343       .  A
N23          N25   1.320       .  A
N23         Co39   2.095       .  S
N24          C38   1.340       .  A
N25          N53   1.323       .  A
N25         Co43   2.079       .  S
H26          C49   1.081       .  S
H27          C44   1.080       .  S
N29         Co43   2.086       .  S
N30          N42   1.327       .  A
N30          N46   1.322       .  A
N30         Co39   2.104       .  S
C31          N35   1.351       .  A
C31          C45   1.462       .  S
C31         C572   1.481       .  S
C32          C51   1.461       .  S
C32          H36   1.082       .  S
N33          C44   1.340       .  A
N33         Co43   2.085       .  S
C37          N53   1.347       .  A
C37          C49   1.463       .  S
C37         C614   1.471       .  S
Co39        Cl50   2.453       .  S
N40          C51   1.355       .  A
C41         C628   1.476       .  S
Co43        Cl50   2.454       .  S
C51         C603   1.488       .  S
C54          N72   1.346       .  A
C54          C91   1.458       .  S
C54         C519   1.465       .  S
N55          N72   1.323       .  A
N55          N77   1.319       .  A
N55         Co92   2.074       .  S
C56          N81   1.338       .  A
C56          C94   1.464       .  S
C56         H101   1.079       .  S
H57          C98   1.080       .  S
C58          N82   1.338       .  A
C58          C62   1.462       .  S
C58          H87   1.082       .  S
Co59         N77   2.084   1_655  S
Co59         N67   2.086       .  S
Co59         N99   2.093   1_656  S
Co59         N75   2.080   1_556  S
Co59       Cl103   2.452   1_655  S
N60          C98   1.337       .  A
N60          N67   1.319       .  A
N60         Co61   2.066       .  S
Co61         N64   2.077       .  S
Co61         N81   2.076   1_556  S
Co61         N68   2.081   1_556  S
Co61       Cl103   2.442   1_655  S
C62         N100   1.349       .  A
C62         C505   1.474       .  S
N63          N70   1.319       .  A
N63          N93   1.325       .  A
N63         Co96   2.088       .  S
N64          N82   1.318       .  A
N64         N100   1.323       .  A
N65          C94   1.350       .  A
N65          N75   1.322       .  A
H66          C91   1.081       .  S
N67          N88   1.322       .  A
N68          N86   1.320       .  A
N68          N73   1.323       .  A
C69          N73   1.349       .  A
C69          C97   1.464       .  S
C69         C477   1.482       .  S
N70          C85   1.338       .  A
N70         Co92   2.075       .  S
C71          N99   1.344       .  A
C71          C74   1.462       .  S
C71         H105   1.082       .  S
C74          N95   1.348       .  A
C74         C446   1.473       .  S
N75          N81   1.319       .  A
N76         C102   1.336       .  A
N76          N78   1.320       .  A
N76         Co92   2.067   1_554  S
N77          C91   1.342       .  A
N78         N106   1.324       .  A
N78         Co96   2.092   1_554  S
H79         C102   1.081       .  S
H80          C97   1.082       .  S
N82         Co96   2.079   1_655  S
N83          N95   1.324       .  A
N83          N99   1.320       .  A
N83         Co92   2.082   1_554  S
C84          N88   1.352       .  A
C84          C98   1.458       .  S
C84         C544   1.475       .  S
C85         C104   1.458       .  S
C85          H89   1.082       .  S
N86          C97   1.343       .  A
N86         Co96   2.091   1_654  S
C90         N106   1.353       .  A
C90         C102   1.454       .  S
C90         C460   1.474       .  S
Co92       Cl103   2.444       .  S
N93         C104   1.351       .  A
C94         C530   1.480       .  S
Co96       Cl103   2.453       .  S
C104        C488   1.475       .  S
C107        C418   1.566       .  S
C107        C432   1.578       .  S
C107        C547   1.562       .  S
C107        C631   1.593       .  S
C108        N126   1.354       .  A
C108        C145   1.465       .  S
C108        C379   1.489       .  S
N109        N126   1.325       .  A
N109        N131   1.320       .  A
N109       Co146   2.097       .  S
C110        N135   1.342       .  A
C110        C148   1.463       .  S
C110        H155   1.081       .  S
H111        C152   1.082       .  S
C112        N136   1.342       .  A
C112        C116   1.460       .  S
C112        H141   1.082       .  S
Co113       N131   2.089       .  S
Co113       N121   2.096       .  S
Co113       N153   2.098   1_556  S
Co113       N129   2.101   1_556  S
Co113      Cl157   2.461       .  S
N114        C152   1.341       .  A
N114        N121   1.319       .  A
N114       Co115   2.084   1_545  S
Co115       N118   2.088       .  S
Co115       N135   2.091   1_566  S
Co115       N122   2.089   1_556  S
Co115      Cl157   2.448   1_565  S
C116        N154   1.350       .  A
C116        C362   1.470       .  S
N117        N124   1.320       .  A
N117        N147   1.325       .  A
N117       Co150   2.082   1_556  S
N118        N136   1.319       .  A
N118        N154   1.324       .  A
N119        C148   1.355       .  A
N119        N129   1.328       .  A
H120        C145   1.080       .  S
N121        N142   1.326       .  A
N122        N140   1.319       .  A
N122        N127   1.326       .  A
C123        N127   1.352       .  A
C123        C151   1.461       .  S
C123        C390   1.481       .  S
N124        C139   1.344       .  A
N124       Co146   2.094   1_565  S
C125        N153   1.344       .  A
C125        C128   1.466       .  S
C125        H159   1.082       .  S
C128        N149   1.351       .  A
C128        C337   1.487       .  S
N129        N135   1.321       .  A
N130        C156   1.344       .  A
N130        N132   1.320       .  A
N130       Co146   2.097   1_564  S
N131        C145   1.343       .  A
N132        N160   1.324       .  A
N132       Co150   2.086       .  S
H133        C156   1.081       .  S
H134        C151   1.082       .  S
N136       Co150   2.084   1_556  S
N137        N149   1.325       .  A
N137        N153   1.321       .  A
N137       Co146   2.090   1_554  S
C138        N142   1.354       .  A
C138        C152   1.459       .  S
C138        C435   1.474       .  S
C139        C158   1.461       .  S
C139        H143   1.081       .  S
N140        C151   1.339       .  A
N140       Co150   2.082       .  S
C144        N160   1.350       .  A
C144        C156   1.465       .  S
C144        C348   1.475       .  S
Co146      Cl157   2.452       .  S
N147        C158   1.347       .  A
C148        C320   1.494       .  S
Co150      Cl157   2.453   1_564  S
C158        C404   1.473       .  S
C161        C309   1.563       .  S
C161        C407   1.573       .  S
C161        C491   1.568       .  S
C161        C642   1.566       .  S
C162        N180   1.353       .  A
C162        C199   1.460       .  S
C162        C292   1.481       .  S
N163        N180   1.324       .  A
N163        N185   1.318       .  A
N163       Co200   2.087   1_645  S
C164        N189   1.342       .  A
C164        C202   1.461       .  S
C164        H209   1.082       .  S
H165        C206   1.082       .  S
C166        N190   1.338       .  A
C166        C170   1.457       .  S
C166        H195   1.080       .  S
Co167       N185   2.072   1_565  S
Co167       N175   2.069   1_565  S
Co167       N207   2.074       .  S
Co167       N183   2.083       .  S
Co167      Cl211   2.441   1_655  S
N168        C206   1.341       .  A
N168        N175   1.319       .  A
N168       Co169   2.085   1_645  S
Co169       N172   2.091   1_565  S
Co169       N189   2.088   1_455  S
Co169       N176   2.077       .  S
Co169      Cl211   2.447       .  S
C170        N208   1.353       .  A
C170        C222   1.476       .  S
N171        N178   1.319       .  A
N171        N201   1.325       .  A
N171       Co204   2.086   1_545  S
N172        N190   1.319       .  A
N172        N208   1.322       .  A
N173        C202   1.350       .  A
N173        N183   1.324       .  A
H174        C199   1.079       .  S
N175        N196   1.321       .  A
N176        N194   1.319       .  A
N176        N181   1.321       .  A
C177        N181   1.350       .  A
C177        C205   1.465       .  S
C177        C306   1.481       .  S
N178        C193   1.339       .  A
N178       Co200   2.078   1_545  S
C179        N207   1.337       .  A
C179        C182   1.460       .  S
C179        H213   1.082       .  S
C182        N203   1.349       .  A
C182        C281   1.474       .  S
N183        N189   1.319       .  A
N184        C210   1.338       .  A
N184        N186   1.319       .  A
N184       Co200   2.077       .  S
N185        C199   1.337       .  A
N186        N214   1.321       .  A
N186       Co204   2.069       .  S
H187        C210   1.082       .  S
H188        C205   1.079       .  S
N190       Co204   2.062   1_545  S
N191        N203   1.323       .  A
N191        N207   1.319       .  A
N191       Co200   2.079   1_655  S
C192        N196   1.346       .  A
C192        C206   1.464       .  S
C192        C421   1.473       .  S
C193        C212   1.460       .  S
C193        H197   1.082       .  S
N194        C205   1.340       .  A
N194       Co204   2.081       .  S
C198        N214   1.347       .  A
C198        C210   1.461       .  S
C198        C267   1.470       .  S
Co200      Cl211   2.450       .  S
N201        C212   1.350       .  A
C202        C250   1.471       .  S
Co204      Cl211   2.444       .  S
C212        C236   1.476       .  S
C215        C278   1.565       .  S
C215        C393   1.572       .  S
C215        C474   1.567       .  S
C215        C617   1.567       .  S
C216        C239   1.570       .  S
C216        C334   1.575       .  S
C216        C449   1.571       .  S
C216        C656   1.567       .  S
C217        C295   1.564       .  S
C217        C323   1.578       .  S
C217        C533   1.564       .  S
C217        C589   1.585       .  S
C218        C264   1.570       .  S
C218        C351   1.578       .  S
C218        C463   1.557       .  S
C218        C600   1.584       .  S
C219        C225   1.565       .  S
C219        C376   1.589       .  S
C219        C516   1.554       .  S
C219        C575   1.575       .  S
C220        C253   1.578       .  S
C220        C365   1.564       .  S
C220        C502   1.568       .  S
C220        C558   1.589       .  S
C221        H228   1.084       .  S
C221        C222   1.394       .  A
C221        C226   1.398       .  A
C222        C223   1.407       .  A
C223        C224   1.395       .  A
C223        N230   1.428       .  S
C224        H229   1.083       .  S
C224        C225   1.416       .  A
C225        C226   1.442       .  A
C226        N227   1.435       .  S
N227        O231   1.262       .  A
N227        O232   1.260       .  A
N230        O234   1.262       .  A
N230        O233   1.262       .  A
C235        H242   1.082       .  S
C235        C236   1.398       .  A
C235        C240   1.401       .  A
C236        C237   1.402       .  A
C237        C238   1.397       .  A
C237        N244   1.429       .  S
C238        H243   1.076       .  S
C238        C239   1.419       .  A
C239        C240   1.432       .  A
C240        N241   1.432       .  S
N241        O245   1.262       .  A
N241        O246   1.262       .  A
N244        O248   1.262       .  A
N244        O247   1.262       .  A
C249        H256   1.083       .  S
C249        C250   1.395       .  A
C249        C254   1.406       .  A
C250        C251   1.396       .  A
C251        C252   1.396       .  A
C251        N258   1.428       .  S
C252        H257   1.082       .  S
C252        C253   1.425       .  A
C253        C254   1.438       .  A
C254        N255   1.431       .  S
N255        O259   1.261       .  A
N255        O260   1.262       .  A
N258        O262   1.262       .  A
N258        O261   1.262       .  A
C263        H270   1.072       .  S
C263        C264   1.415       .  A
C263        C268   1.393       .  A
C264        C265   1.434       .  A
C265        C266   1.396       .  A
C265        N272   1.428       .  S
C266        H271   1.078       .  S
C266        C267   1.392       .  A
C267        C268   1.400       .  A
C268        N269   1.423       .  S
N269        O273   1.261       .  A
N269        O274   1.261       .  A
N272        O276   1.262       .  A
N272        O275   1.263       .  A
C277        H284   1.072       .  S
C277        C278   1.419       .  A
C277        C282   1.396       .  A
C278        C279   1.433       .  A
C279        C280   1.398       .  A
C279        N286   1.433       .  S
C280        H285   1.080       .  S
C280        C281   1.397       .  A
C281        C282   1.402       .  A
C282        N283   1.430       .  S
N283        O287   1.262       .  A
N283        O288   1.262       .  A
N286        O290   1.262       .  A
N286        O289   1.262       .  A
C291        H298   1.083       .  S
C291        C292   1.398       .  A
C291        C296   1.405       .  A
C292        C293   1.407       .  A
C293        C294   1.393       .  A
C293        N300   1.428       .  S
C294        H299   1.081       .  S
C294        C295   1.416       .  A
C295        C296   1.441       .  A
C296        N297   1.435       .  S
N297        O301   1.262       .  A
N297        O302   1.260       .  A
N300        O304   1.262       .  A
N300        O303   1.262       .  A
C305        H312   1.082       .  S
C305        C306   1.402       .  A
C305        C310   1.400       .  A
C306        C307   1.404       .  A
C307        C308   1.391       .  A
C307        N314   1.423       .  S
C308        H313   1.076       .  S
C308        C309   1.414       .  A
C309        C310   1.427       .  A
C310        N311   1.431       .  S
N311        O315   1.262       .  A
N311        O316   1.262       .  A
N314        O318   1.260       .  A
N314        O317   1.262       .  A
C319        H326   1.084       .  S
C319        C320   1.402       .  A
C319        C324   1.410       .  A
C320        C321   1.406       .  A
C321        C322   1.399       .  A
C321        N328   1.428       .  S
C322        H327   1.083       .  S
C322        C323   1.420       .  A
C323        C324   1.437       .  A
C324        N325   1.432       .  S
N325        O329   1.263       .  A
N325        O330   1.261       .  A
N328        O332   1.262       .  A
N328        O331   1.262       .  A
C333        H340   1.077       .  S
C333        C334   1.417       .  A
C333        C338   1.402       .  A
C334        C335   1.433       .  A
C335        C336   1.404       .  A
C335        N342   1.432       .  S
C336        H341   1.082       .  S
C336        C337   1.399       .  A
C337        C338   1.406       .  A
C338        N339   1.429       .  S
N339        O343   1.262       .  A
N339        O344   1.262       .  A
N342        O346   1.262       .  A
N342        O345   1.262       .  A
C347        H354   1.084       .  S
C347        C348   1.394       .  A
C347        C352   1.405       .  A
C348        C349   1.399       .  A
C349        C350   1.400       .  A
C349        N356   1.429       .  S
C350        H355   1.083       .  S
C350        C351   1.422       .  A
C351        C352   1.443       .  A
C352        N353   1.434       .  S
N353        O357   1.260       .  A
N353        O358   1.262       .  A
N356        O360   1.262       .  A
N356        O359   1.262       .  A
C361        H368   1.084       .  S
C361        C362   1.393       .  A
C361        C366   1.402       .  A
C362        C363   1.399       .  A
C363        C364   1.400       .  A
C363        N370   1.429       .  S
C364        H369   1.082       .  S
C364        C365   1.419       .  A
C365        C366   1.442       .  A
C366        N367   1.436       .  S
N367        O371   1.262       .  A
N367        O372   1.260       .  A
N370        O374   1.262       .  A
N370        O373   1.262       .  A
C375        H382   1.076       .  S
C375        C376   1.422       .  A
C375        C380   1.404       .  A
C376        C377   1.432       .  A
C377        C378   1.401       .  A
C377        N384   1.426       .  S
C378        H383   1.082       .  S
C378        C379   1.396       .  A
C379        C380   1.407       .  A
C380        N381   1.429       .  S
N381        O385   1.262       .  A
N381        O386   1.262       .  A
N384        O388   1.263       .  A
N384        O387   1.262       .  A
C389        H396   1.082       .  S
C389        C390   1.398       .  A
C389        C394   1.400       .  A
C390        C391   1.404       .  A
C391        C392   1.402       .  A
C391        N398   1.429       .  S
C392        H397   1.077       .  S
C392        C393   1.419       .  A
C393        C394   1.432       .  A
C394        N395   1.432       .  S
N395        O399   1.262       .  A
N395        O400   1.262       .  A
N398        O402   1.262       .  A
N398        O401   1.262       .  A
C403        H410   1.083       .  S
C403        C404   1.394       .  A
C403        C408   1.404       .  A
C404        C405   1.400       .  A
C405        C406   1.399       .  A
C405        N412   1.429       .  S
C406        H411   1.076       .  S
C406        C407   1.419       .  A
C407        C408   1.436       .  A
C408        N409   1.432       .  S
N409        O413   1.262       .  A
N409        O414   1.262       .  A
N412        O416   1.262       .  A
N412        O415   1.262       .  A
C417        H424   1.074       .  S
C417        C418   1.415       .  A
C417        C422   1.397       .  A
C418        C419   1.435       .  A
C419        C420   1.399       .  A
C419        N426   1.431       .  S
C420        H425   1.082       .  S
C420        C421   1.394       .  A
C421        C422   1.404       .  A
C422        N423   1.428       .  S
N423        O427   1.261       .  A
N423        O428   1.262       .  A
N426        O430   1.262       .  A
N426        O429   1.262       .  A
C431        H438   1.082       .  S
C431        C432   1.423       .  A
C431        C436   1.401       .  A
C432        C433   1.440       .  A
C433        C434   1.404       .  A
C433        N440   1.431       .  S
C434        H439   1.083       .  S
C434        C435   1.393       .  A
C435        C436   1.400       .  A
C436        N437   1.428       .  S
N437        O441   1.262       .  A
N437        O442   1.262       .  A
N440        O444   1.261       .  A
N440        O443   1.262       .  A
C445        H452   1.082       .  S
C445        C446   1.394       .  A
C445        C450   1.406       .  A
C446        C447   1.398       .  A
C447        C448   1.395       .  A
C447        N454   1.423       .  S
C448        H453   1.076       .  S
C448        C449   1.415       .  A
C449        C450   1.437       .  A
C450        N451   1.431       .  S
N451        O455   1.262       .  A
N451        O456   1.262       .  A
N454        O458   1.261       .  A
N454        O457   1.261       .  A
C459        H466   1.083       .  S
C459        C460   1.402       .  A
C459        C464   1.403       .  A
C460        C461   1.398       .  A
C461        C462   1.391       .  A
C461        N468   1.430       .  S
C462        H467   1.076       .  S
C462        C463   1.418       .  A
C463        C464   1.431       .  A
C464        N465   1.436       .  S
N465        O469   1.262       .  A
N465        O470   1.261       .  A
N468        O472   1.262       .  A
N468        O471   1.262       .  A
C473        H480   1.079       .  S
C473        C474   1.414       .  A
C473        C478   1.393       .  A
C474        C475   1.429       .  A
C475        C476   1.406       .  A
C475        N482   1.431       .  S
C476        H481   1.083       .  S
C476        C477   1.401       .  A
C477        C478   1.403       .  A
C478        N479   1.424       .  S
N479        O483   1.261       .  A
N479        O484   1.262       .  A
N482        O486   1.262       .  A
N482        O485   1.261       .  A
C487        H494   1.082       .  S
C487        C488   1.398       .  A
C487        C492   1.399       .  A
C488        C489   1.401       .  A
C489        C490   1.398       .  A
C489        N496   1.430       .  S
C490        H495   1.076       .  S
C490        C491   1.420       .  A
C491        C492   1.431       .  A
C492        N493   1.432       .  S
N493        O497   1.262       .  A
N493        O498   1.262       .  A
N496        O500   1.262       .  A
N496        O499   1.262       .  A
C501        H508   1.069       .  S
C501        C502   1.419       .  A
C501        C506   1.398       .  A
C502        C503   1.435       .  A
C503        C504   1.397       .  A
C503        N510   1.432       .  S
C504        H509   1.080       .  S
C504        C505   1.395       .  A
C505        C506   1.402       .  A
C506        N507   1.429       .  S
N507        O511   1.261       .  A
N507        O512   1.262       .  A
N510        O514   1.262       .  A
N510        O513   1.261       .  A
C515        H522   1.073       .  S
C515        C516   1.410       .  A
C515        C520   1.393       .  A
C516        C517   1.436       .  A
C517        C518   1.402       .  A
C517        N524   1.433       .  S
C518        H523   1.082       .  S
C518        C519   1.393       .  A
C519        C520   1.399       .  A
C520        N521   1.423       .  S
N521        O525   1.261       .  A
N521        O526   1.261       .  A
N524        O528   1.262       .  A
N524        O527   1.261       .  A
C529        H536   1.082       .  S
C529        C530   1.401       .  A
C529        C534   1.402       .  A
C530        C531   1.403       .  A
C531        C532   1.391       .  A
C531        N538   1.423       .  S
C532        H537   1.075       .  S
C532        C533   1.413       .  A
C533        C534   1.430       .  A
C534        N535   1.432       .  S
N535        O539   1.262       .  A
N535        O540   1.261       .  A
N538        O542   1.260       .  A
N538        O541   1.262       .  A
C543        H550   1.083       .  S
C543        C544   1.394       .  A
C543        C548   1.400       .  A
C544        C545   1.406       .  A
C545        C546   1.395       .  A
C545        N552   1.429       .  S
C546        H551   1.082       .  S
C546        C547   1.417       .  A
C547        C548   1.440       .  A
C548        N549   1.435       .  S
N549        O553   1.260       .  A
N549        O554   1.263       .  A
N552        O556   1.262       .  A
N552        O555   1.262       .  A
C557        H564   1.076       .  S
C557        C558   1.423       .  A
C557        C562   1.401       .  A
C558        C559   1.432       .  A
C559        C560   1.402       .  A
C559        N566   1.426       .  S
C560        H565   1.083       .  S
C560        C561   1.397       .  A
C561        C562   1.405       .  A
C562        N563   1.429       .  S
N563        O567   1.262       .  A
N563        O568   1.262       .  A
N566        O570   1.263       .  A
N566        O569   1.262       .  A
C571        H578   1.081       .  S
C571        C572   1.399       .  A
C571        C576   1.401       .  A
C572        C573   1.405       .  A
C573        C574   1.399       .  A
C573        N580   1.430       .  S
C574        H579   1.075       .  S
C574        C575   1.419       .  A
C575        C576   1.432       .  A
C576        N577   1.432       .  S
N577        O581   1.262       .  A
N577        O582   1.262       .  A
N580        O584   1.262       .  A
N580        O583   1.262       .  A
C585        H592   1.083       .  S
C585        C586   1.389       .  A
C585        C590   1.400       .  A
C586        C587   1.402       .  A
C587        C588   1.400       .  A
C587        N594   1.429       .  S
C588        H593   1.079       .  S
C588        C589   1.421       .  A
C589        C590   1.434       .  A
C590        N591   1.426       .  S
N591        O595   1.263       .  A
N591        O596   1.262       .  A
N594        O598   1.262       .  A
N594        O597   1.262       .  A
C599        H606   1.072       .  S
C599        C600   1.412       .  A
C599        C604   1.399       .  A
C600        C601   1.439       .  A
C601        C602   1.411       .  A
C601        N608   1.430       .  S
C602        H607   1.081       .  S
C602        C603   1.397       .  A
C603        C604   1.401       .  A
C604        N605   1.419       .  S
N605        O609   1.259       .  A
N605        O610   1.261       .  A
N608        O612   1.262       .  A
N608        O611   1.262       .  A
C613        H620   1.084       .  S
C613        C614   1.393       .  A
C613        C618   1.405       .  A
C614        C615   1.397       .  A
C615        C616   1.390       .  A
C615        N622   1.418       .  S
C616        H621   1.078       .  S
C616        C617   1.409       .  A
C617        C618   1.437       .  A
C618        N619   1.431       .  S
N619        O623   1.262       .  A
N619        O624   1.261       .  A
N622        O626   1.259       .  A
N622        O625   1.261       .  A
C627        H634   1.083       .  S
C627        C628   1.392       .  A
C627        C632   1.406       .  A
C628        C629   1.399       .  A
C629        C630   1.401       .  A
C629        N636   1.429       .  S
C630        H635   1.074       .  S
C630        C631   1.424       .  A
C631        C632   1.437       .  A
C632        N633   1.428       .  S
N633        O637   1.262       .  A
N633        O638   1.262       .  A
N636        O640   1.262       .  A
N636        O639   1.262       .  A
C641        H648   1.078       .  S
C641        C642   1.416       .  A
C641        C646   1.399       .  A
C642        C643   1.436       .  A
C643        C644   1.397       .  A
C643        N650   1.431       .  S
C644        H649   1.083       .  S
C644        C645   1.389       .  A
C645        C646   1.402       .  A
C646        N647   1.429       .  S
N647        O651   1.262       .  A
N647        O652   1.262       .  A
N650        O654   1.262       .  A
N650        O653   1.262       .  A
C655        H662   1.077       .  S
C655        C656   1.417       .  A
C655        C660   1.400       .  A
C656        C657   1.432       .  A
C657        C658   1.399       .  A
C657        N664   1.432       .  S
C658        H663   1.082       .  S
C658        C659   1.397       .  A
C659        C660   1.405       .  A
C660        N661   1.429       .  S
N661        O665   1.262       .  A
N661        O666   1.262       .  A
N664        O668   1.262       .  A
N664        O667   1.262       .  A
