geometry optimzed in LAMMPS
_audit_creation_date              2020-11-30 
_audit_creation_method            'lammps2cif' 
_symmetry_space_group_name_H-M    'P1' 
_symmetry_Int_Tables_number       1 
_symmetry_cell_setting            triclinic 
loop_ 
_symmetry_equiv_pos_as_xyz 
  x,y,z 
_cell_length_a                    73.53489818 
_cell_length_b                    73.07421869478829 
_cell_length_c                    73.33671774597845 
_cell_angle_alpha                 90.1126816743252 
_cell_angle_beta                  89.9742932620218 
_cell_angle_gamma                 89.9649990569384 
loop_ 
_atom_site_label 
_atom_site_type_symbol 
_atom_site_fract_x 
_atom_site_fract_y 
_atom_site_fract_z 
_atom_site_charge 
C1          C  0.91965479  0.41773766  0.50166817    -0.02500
C2          C  0.91893086  0.55808879  0.50707340    -0.02500
C3          C  0.05651709  0.56356331  0.50196481    -0.02500
C4          C  0.05783797  0.42409163  0.50451775    -0.02500
C5          C  0.40940321  0.48765175  0.92083896    -0.02500
C6          C  0.54580028  0.48598142  0.92686387    -0.02500
C7          C  0.54430857  0.48931150  0.06630175    -0.02500
C8          C  0.40724028  0.48597871  0.06038481    -0.02500
C9          C  0.49590241  0.91949295  0.56733939    -0.02500
C10         C  0.49420469  0.92398661  0.43058997    -0.02500
C11         C  0.49325880  0.06320648  0.43222560    -0.02500
C12         C  0.49557704  0.05819801  0.56885328    -0.02500
C13         C  0.42360129  0.92362890  0.00052912    -0.02500
C14         C  0.56148336  0.92522658  0.00416324    -0.02500
C15         C  0.42138531  0.06135028  0.00246026    -0.02500
C16         C  0.55967532  0.06294678  0.00184285    -0.02500
C17         C  0.92268743  0.98498739  0.42219243    -0.02500
C18         C  0.92222893  0.98469568  0.56178515    -0.02500
C19         C  0.05936728  0.99047727  0.42576248    -0.02500
C20         C  0.05971099  0.99135994  0.56543717    -0.02500
C21         C  0.98368126  0.56660092  0.93284934    -0.02500
C22         C  0.98597052  0.42626192  0.93310029    -0.02500
C23         C  0.98457621  0.42484257  0.07058889    -0.02500
C24         C  0.98401940  0.56524899  0.07005610    -0.02500
In25       In  0.11438950  0.38222519  0.17280252     1.36900
C26         C  0.08361229  0.37972687  0.15378478     0.77500
O27         O  0.10870144  0.35907048  0.19287002    -0.60900
O28         O  0.12019540  0.38390507  0.20230879    -0.51800
C29         C  0.14705833  0.37198570  0.16082694     0.70200
O30         O  0.13284848  0.36327251  0.15638706    -0.46700
C31         C  0.11416559  0.41840548  0.17085015     0.74900
O32         O  0.09871034  0.37467773  0.14728991    -0.58500
O33         O  0.10700284  0.40974212  0.18381756    -0.48600
O34         O  0.08410357  0.38385683  0.17045057    -0.55000
C35         C  0.11447501  0.36823841  0.20633505     0.85100
O36         O  0.14427968  0.38524951  0.17143833    -0.56900
O37         O  0.12152295  0.40849672  0.15884149    -0.60200
In38       In  0.12249598  0.59061935  0.16857802     1.36900
C39         C  0.09591174  0.59481528  0.14384587     0.77500
O40         O  0.13043298  0.56277912  0.15931787    -0.60900
O41         O  0.10943026  0.56483128  0.17905466    -0.51800
C42         C  0.15639430  0.60159937  0.16070758     0.70200
O43         O  0.15262660  0.58767991  0.16999218    -0.46700
C44         C  0.11838867  0.60462794  0.20198197     0.74900
O45         O  0.11147637  0.58878233  0.13988289    -0.58500
O46         O  0.12524752  0.58912248  0.19891876    -0.48600
O47         O  0.09446601  0.60023682  0.16012394    -0.55000
C48         C  0.11906540  0.55453561  0.16915795     0.85100
O49         O  0.14259904  0.61050598  0.15547732    -0.56900
O50         O  0.11356821  0.61318798  0.18781743    -0.60200
In51       In  0.31167055  0.62956381  0.89850065     1.36900
C52         C  0.32926240  0.59734052  0.89629360     0.77500
O53         O  0.32490790  0.63899936  0.92466652    -0.60900
O54         O  0.29877108  0.62691826  0.92587973    -0.51800
C55         C  0.32225920  0.66282679  0.88730568     0.70200
O56         O  0.33290230  0.64922568  0.88753391    -0.46700
C57         C  0.27994938  0.62693658  0.88144669     0.74900
O58         O  0.33369381  0.61094089  0.88663116    -0.58500
O59         O  0.28180866  0.63161478  0.89784111    -0.48600
O60         O  0.31536853  0.60003938  0.90594901    -0.55000
C61         C  0.31170922  0.63411705  0.93451194     0.85100
O62         O  0.30628203  0.65914038  0.89215541    -0.56900
O63         O  0.29462622  0.62270360  0.87345641    -0.60200
In64       In  0.31675303  0.62886948  0.10499458     1.36900
C65         C  0.33480290  0.59704184  0.10068550     0.77500
O66         O  0.29863164  0.61627200  0.12683053    -0.60900
O67         O  0.28719918  0.63470808  0.10768264    -0.51800
C68         C  0.33172568  0.65914754  0.11930132     0.70200
O69         O  0.34101284  0.64709366  0.11120728    -0.46700
C70         C  0.31240381  0.63765410  0.07010670     0.74900
O71         O  0.32423142  0.60406432  0.08924783    -0.58500
O72         O  0.30102666  0.62829603  0.07893157    -0.48600
O73         O  0.33567754  0.60584903  0.11555576    -0.55000
C74         C  0.28454463  0.62456035  0.12127264     0.85100
O75         O  0.31532936  0.65483496  0.12146273    -0.56900
O76         O  0.32565113  0.64336413  0.07943689    -0.60200
In77       In  0.11937330  0.59905157  0.83250254     1.36900
C78         C  0.09221638  0.60277802  0.85670689     0.77500
O79         O  0.11200516  0.62186219  0.81287936    -0.60900
O80         O  0.11981083  0.59596375  0.80233065    -0.51800
C81         C  0.15278280  0.61160890  0.83882666     0.70200
O82         O  0.13888293  0.61932804  0.84550102    -0.46700
C83         C  0.12004635  0.56281325  0.83335064     0.74900
O84         O  0.10847742  0.59985989  0.86126261    -0.58500
O85         O  0.10950911  0.57166839  0.82305281    -0.48600
O86         O  0.09009193  0.60545277  0.83984870    -0.55000
C87         C  0.11510987  0.61215912  0.79889991     0.85100
O88         O  0.14933903  0.59805903  0.82885013    -0.56900
O89         O  0.12994138  0.57256695  0.84345338    -0.60200
In90       In  0.12113460  0.39019068  0.83294751     1.36900
C91         C  0.09068975  0.38800781  0.85272933     0.77500
O92         O  0.12955695  0.41667879  0.84637637    -0.60900
O93         O  0.11429715  0.41752597  0.82184076    -0.51800
C94         C  0.15423763  0.37912175  0.84222346     0.70200
O95         O  0.14016117  0.37127466  0.84835016    -0.46700
C96         C  0.11957668  0.37420208  0.80026284     0.74900
O97         O  0.10600197  0.38355337  0.85916434    -0.58500
O98         O  0.12494926  0.39032851  0.80282933    -0.48600
O99         O  0.09093099  0.39172419  0.83597042    -0.55000
C100        C  0.12211924  0.42641615  0.83430486     0.85100
O101        O  0.15108605  0.39231234  0.83169177    -0.56900
O102        O  0.11460378  0.36600768  0.81458993    -0.60200
In103      In  0.31545924  0.34677851  0.89084099     1.36900
C104        C  0.33861339  0.37482828  0.88752898     0.77500
O105        O  0.29627378  0.35577327  0.86858092    -0.60900
O106        O  0.28548957  0.34484074  0.89315938    -0.51800
C107        C  0.32311756  0.31339109  0.87863773     0.70200
O108        O  0.32963519  0.32745976  0.87105376    -0.46700
C109        C  0.31433531  0.34632569  0.92676882     0.74900
O110        O  0.34350861  0.35898232  0.89218330    -0.58500
O111        O  0.30390909  0.35611481  0.91726866    -0.48600
O112        O  0.32203726  0.37604021  0.88331875    -0.55000
C113        C  0.28228106  0.35158250  0.87772343     0.85100
O114        O  0.31232318  0.31672513  0.89145994    -0.56900
O115        O  0.32591663  0.33729257  0.91785032    -0.60200
In116      In  0.30638110  0.35065899  0.09793613     1.36900
C117        C  0.32665198  0.38117833  0.09918507     0.77500
O118        O  0.32068114  0.34407143  0.07196399    -0.60900
O119        O  0.29405706  0.35530877  0.07055119    -0.51800
C120        C  0.31745983  0.31770578  0.10934039     0.70200
O121        O  0.32059009  0.33210128  0.11844336    -0.46700
C122        C  0.27321685  0.35345265  0.11276924     0.74900
O123        O  0.33241000  0.36604159  0.10516843    -0.58500
O124        O  0.27643958  0.34476844  0.09831034    -0.48600
O125        O  0.31024583  0.38084527  0.09427523    -0.55000
C126        C  0.30771407  0.34931779  0.06202724     0.85100
O127        O  0.30863382  0.32036876  0.09490307    -0.56900
O128        O  0.28715728  0.36046060  0.12005656    -0.60200
In129      In  0.38357523  0.16015037  0.13821855     1.36900
C130        C  0.38166631  0.14065484  0.10739430     0.77500
O131        O  0.35899895  0.17735598  0.13012140    -0.60900
O132        O  0.38211025  0.19058883  0.14107377    -0.51800
C133        C  0.37456069  0.14983658  0.17198312     0.70200
O134        O  0.36637787  0.14352148  0.15817250    -0.46700
C135        C  0.41968178  0.15975120  0.13890950     0.74900
O136        O  0.37597640  0.13438737  0.12240211    -0.58500
O137        O  0.41044007  0.17350515  0.13430351    -0.48600
O138        O  0.38682244  0.15706659  0.10815752    -0.55000
C139        C  0.36640683  0.19232945  0.13454693     0.85100
O140        O  0.38663418  0.16140881  0.16827447    -0.56900
O141        O  0.41038101  0.14590950  0.14319466    -0.60200
In142      In  0.59109722  0.16755162  0.13651918     1.36900
C143        C  0.59327016  0.14805067  0.10540365     0.77500
O144        O  0.56539226  0.15161491  0.14082279    -0.60900
O145        O  0.56347040  0.17947158  0.13279169    -0.51800
C146        C  0.60000608  0.15603827  0.17021326     0.70200
O147        O  0.60946694  0.15189771  0.15637385    -0.46700
C148        C  0.60625291  0.20112106  0.13418938     0.74900
O149        O  0.60127026  0.14311831  0.11986452    -0.58500
O150        O  0.59146815  0.19780515  0.14211006    -0.48600
O151        O  0.58576871  0.16351451  0.10660963    -0.55000
C152        C  0.55519758  0.16492414  0.13689691     0.85100
O153        O  0.58657321  0.16603593  0.16663056    -0.56900
O154        O  0.61378777  0.18705381  0.12754722    -0.60200
In155      In  0.63084400  0.88908033  0.33018280     1.36900
C156        C  0.60042815  0.88905861  0.35038773     0.77500
O157        O  0.63800401  0.91568072  0.34410368    -0.60900
O158        O  0.62858658  0.91640980  0.31679021    -0.51800
C159        C  0.66399958  0.87661036  0.33921986     0.70200
O160        O  0.64965562  0.86983048  0.34592067    -0.46700
C161        C  0.62528717  0.87214959  0.29827532     0.74900
O162        O  0.61488654  0.88140524  0.35581823    -0.58500
O163        O  0.63434158  0.88658879  0.30016996    -0.48600
O164        O  0.60148575  0.89550245  0.33450025    -0.55000
C165        C  0.63410462  0.92536428  0.33040715     0.85100
O166        O  0.66116665  0.88943325  0.32819521    -0.56900
O167        O  0.61888566  0.86589677  0.31297619    -0.60200
In168      In  0.62662856  0.09809432  0.33121029     1.36900
C169        C  0.59500415  0.10052849  0.34914478     0.77500
O170        O  0.61560080  0.12068677  0.31278475    -0.60900
O171        O  0.63140977  0.09942359  0.30119431    -0.51800
C172        C  0.65896882  0.10982122  0.34352515     0.70200
O173        O  0.64546171  0.10791216  0.35397924    -0.46700
C174        C  0.63132524  0.06186121  0.33117328     0.74900
O175        O  0.60783463  0.11169103  0.35204906    -0.58500
O176        O  0.62458124  0.07055234  0.31801406    -0.48600
O177        O  0.59819481  0.08916583  0.33661634    -0.55000
C178        C  0.62238895  0.11378952  0.29846683     0.85100
O179        O  0.65540531  0.10701339  0.32699726    -0.56900
O180        O  0.63565149  0.07173683  0.34458625    -0.60200
In181      In  0.59342763  0.82074792  0.13661355     1.36900
C182        C  0.59749397  0.84029063  0.10602947     0.77500
O183        O  0.61704964  0.80131964  0.13075156    -0.60900
O184        O  0.59178452  0.79056579  0.13949214    -0.51800
C185        C  0.60230221  0.83002112  0.17066619     0.70200
O186        O  0.61206633  0.83443737  0.15715943    -0.46700
C187        C  0.55754794  0.82353015  0.13572048     0.74900
O188        O  0.60213269  0.84649474  0.12143664    -0.58500
O189        O  0.56607437  0.80933781  0.13094875    -0.48600
O190        O  0.59265397  0.82376624  0.10627287    -0.55000
C191        C  0.60787888  0.78724913  0.13474874     0.85100
O192        O  0.58837610  0.82093846  0.16657523    -0.56900
O193        O  0.56748252  0.83653176  0.14112250    -0.60200
In194      In  0.38596851  0.82279138  0.13251810     1.36900
C195        C  0.38063654  0.84209861  0.10183738     0.77500
O196        O  0.41204679  0.83872445  0.13687551    -0.60900
O197        O  0.41352829  0.81095422  0.12882101    -0.51800
C198        C  0.37694647  0.83116931  0.16687882     0.70200
O199        O  0.36876314  0.83791609  0.15328664    -0.46700
C200        C  0.37227492  0.78913763  0.12964848     0.74900
O201        O  0.37885897  0.84911645  0.11744773    -0.58500
O202        O  0.38876466  0.79307052  0.12738755    -0.48600
O203        O  0.38289030  0.82504699  0.10207042    -0.55000
C204        C  0.42205002  0.82533828  0.13272084     0.85100
O205        O  0.38919131  0.81983091  0.16277985    -0.56900
O206        O  0.36213639  0.80280374  0.13282349    -0.60200
In207      In  0.35715333  0.89300946  0.32737117     1.36900
C208        C  0.38680490  0.89437367  0.34909260     0.77500
O209        O  0.36571984  0.86865670  0.30947115    -0.60900
O210        O  0.36020330  0.89423483  0.29724528    -0.51800
C211        C  0.32423887  0.88114001  0.33787841     0.70200
O212        O  0.33742640  0.88259417  0.34878251    -0.46700
C213        C  0.34866060  0.92826696  0.32525391     0.74900
O214        O  0.38205009  0.90658906  0.33805105    -0.58500
O215        O  0.35774933  0.92003021  0.31320274    -0.48600
O216        O  0.37696546  0.88021080  0.34836339    -0.55000
C217        C  0.36428829  0.87772140  0.29484330     0.85100
O218        O  0.32830233  0.88453352  0.32157526    -0.56900
O219        O  0.34395654  0.91842501  0.33856080    -0.60200
In220      In  0.35361326  0.09798627  0.33500934     1.36900
C221        C  0.38442482  0.09630040  0.35462826     0.77500
O222        O  0.33988125  0.07194106  0.34278141    -0.60900
O223        O  0.35574021  0.07226036  0.31859432    -0.51800
C224        C  0.32292918  0.11005734  0.35004385     0.70200
O225        O  0.33322351  0.09863126  0.35766297    -0.46700
C226        C  0.35638063  0.11216945  0.30181027     0.74900
O227        O  0.37434894  0.11033273  0.35527893    -0.58500
O228        O  0.34529276  0.09976712  0.30600483    -0.48600
O229        O  0.37923516  0.08451395  0.34330350    -0.55000
C230        C  0.34586375  0.06313141  0.32927126     0.85100
O231        O  0.32951562  0.11715440  0.33586051    -0.56900
O232        O  0.36588995  0.11805660  0.31499276    -0.60200
In233      In  0.16118312  0.12946000  0.40357070     1.36900
C234        C  0.14074194  0.09918032  0.40147027     0.77500
O235        O  0.18024254  0.12879355  0.37902904    -0.60900
O236        O  0.18898436  0.11762572  0.40410089    -0.51800
C237        C  0.15158621  0.16309989  0.39367346     0.70200
O238        O  0.14262440  0.14913040  0.38891026    -0.46700
C239        C  0.16061969  0.13589195  0.43914913     0.74900
O240        O  0.15448219  0.10098988  0.41149017    -0.58500
O241        O  0.17510402  0.13466480  0.43007138    -0.48600
O242        O  0.13777394  0.11275194  0.39124476    -0.55000
C243        C  0.19303094  0.12152482  0.38794086     0.85100
O244        O  0.16568277  0.15965238  0.40278365    -0.56900
O245        O  0.14626440  0.13425771  0.42987843    -0.60200
In246      In  0.15984204  0.12724993  0.60853006     1.36900
C247        C  0.13855612  0.09735931  0.60587907     0.77500
O248        O  0.14594713  0.13783548  0.58345140    -0.60900
O249        O  0.17458934  0.13446445  0.58290325    -0.51800
C250        C  0.15005762  0.15990588  0.62145584     0.70200
O251        O  0.13940679  0.14633962  0.62145905    -0.46700
C252        C  0.19220641  0.11760926  0.62175419     0.74900
O253        O  0.13920142  0.10645391  0.62058213    -0.58500
O254        O  0.18757217  0.11574748  0.60536364    -0.48600
O255        O  0.14954692  0.10285055  0.59398797    -0.55000
C256        C  0.16040364  0.13865916  0.57424270     0.85100
O257        O  0.16598044  0.15624493  0.61633595    -0.56900
O258        O  0.17956188  0.12305630  0.63214498    -0.60200
In259      In  0.88610942  0.32212585  0.64221185     1.36900
C260        C  0.88324647  0.34329687  0.61212494     0.77500
O261        O  0.91194358  0.33747918  0.64866035    -0.60900
O262        O  0.91342900  0.31046619  0.63805117    -0.51800
C263        C  0.87489660  0.32887087  0.67634901     0.70200
O264        O  0.86569011  0.33373776  0.66260319    -0.46700
C265        C  0.87381192  0.28797600  0.63728802     0.74900
O266        O  0.88109090  0.34965595  0.62799334    -0.58500
O267        O  0.89007098  0.29187173  0.64090609    -0.48600
O268        O  0.88492260  0.32615265  0.61178332    -0.55000
C269        C  0.92190425  0.32434737  0.64361500     0.85100
O270        O  0.88933947  0.32054872  0.67243904    -0.56900
O271        O  0.86341007  0.30176786  0.63615861    -0.60200
In272      In  0.09307123  0.32238661  0.63909946     1.36900
C273        C  0.09563799  0.34366862  0.60964613     0.77500
O274        O  0.11696598  0.30318063  0.63445754    -0.60900
O275        O  0.09040383  0.29223952  0.63733801    -0.51800
C276        C  0.10430790  0.32999551  0.67268008     0.70200
O277        O  0.09083880  0.32000235  0.66914807    -0.46700
C278        C  0.05717872  0.32413391  0.64092649     0.74900
O279        O  0.09746575  0.34986433  0.62558105    -0.58500
O280        O  0.06565565  0.31068324  0.63434660    -0.48600
O281        O  0.09459775  0.32648920  0.60881547    -0.55000
C282        C  0.10705612  0.28902425  0.63503612     0.85100
O283        O  0.11260998  0.33594595  0.65880053    -0.56900
O284        O  0.06715240  0.33694389  0.64662430    -0.60200
In285      In  0.82669759  0.12566768  0.59883752     1.36900
C286        C  0.84529586  0.09419852  0.59682253     0.77500
O287        O  0.80842981  0.12048092  0.62348514    -0.60900
O288        O  0.79771595  0.11730511  0.59690547    -0.51800
C289        C  0.83668388  0.15858414  0.61111087     0.70200
O290        O  0.84681683  0.14469611  0.61278942    -0.46700
C291        C  0.82796382  0.13566658  0.56414404     0.74900
O292        O  0.83342950  0.09933856  0.58563086    -0.58500
O293        O  0.81331392  0.13300937  0.57267787    -0.48600
O294        O  0.84722601  0.10483800  0.61032579    -0.55000
C295        C  0.79464742  0.11702872  0.61376539     0.85100
O296        O  0.82137533  0.15520388  0.60424507    -0.56900
O297        O  0.84217797  0.13353829  0.57355072    -0.60200
In298      In  0.82295118  0.12502467  0.39483173     1.36900
C299        C  0.84035712  0.09256752  0.39401985     0.77500
O300        O  0.83948319  0.13135982  0.41998152    -0.60900
O301        O  0.81084746  0.13390763  0.42125051    -0.51800
C302        C  0.83395637  0.15746192  0.38155574     0.70200
O303        O  0.84478229  0.14435900  0.38431661    -0.46700
C304        C  0.78928084  0.11843883  0.38259286     0.74900
O305        O  0.84248085  0.10435789  0.38157868    -0.58500
O306        O  0.79338485  0.11980994  0.39921006    -0.48600
O307        O  0.82855502  0.09697662  0.40565277    -0.55000
C308        C  0.82576169  0.13509018  0.42957082     0.85100
O309        O  0.81754541  0.15337558  0.38406288    -0.56900
O310        O  0.80278058  0.11942368  0.37187135    -0.60200
In311      In  0.88879812  0.32122137  0.36512981     1.36900
C312        C  0.88461698  0.34746571  0.39055282     0.77500
O313        O  0.86546723  0.30118440  0.36907514    -0.60900
O314        O  0.89241587  0.29102116  0.36804209    -0.51800
C315        C  0.87796850  0.32741031  0.33122076     0.70200
O316        O  0.86912214  0.33325047  0.34483503    -0.46700
C317        C  0.92462112  0.32125555  0.36601044     0.74900
O318        O  0.87939825  0.33119675  0.39300060    -0.58500
O319        O  0.91565219  0.32954845  0.35394378    -0.48600
O320        O  0.89038680  0.35051549  0.37470674    -0.55000
C321        C  0.87574043  0.28729839  0.36917308     0.85100
O322        O  0.89191665  0.31828497  0.33514989    -0.56900
O323        O  0.91515976  0.31288519  0.37770427    -0.60200
In324      In  0.09553045  0.32487426  0.37055992     1.36900
C325        C  0.09810804  0.35071812  0.39621543     0.77500
O326        O  0.06877654  0.31730813  0.38278453    -0.60900
O327        O  0.06909171  0.33062765  0.35706861    -0.51800
C328        C  0.10723941  0.33156578  0.33700820     0.70200
O329        O  0.11277298  0.34083575  0.35048539    -0.46700
C330        C  0.10892823  0.29172050  0.37660241     0.74900
O331        O  0.09197446  0.35367287  0.38047748    -0.58500
O332        O  0.09232632  0.29493360  0.37396843    -0.48600
O333        O  0.10452428  0.33483630  0.39838555    -0.55000
C334        C  0.05973724  0.32361074  0.36960686     0.85100
O335        O  0.09690101  0.31852145  0.34108007    -0.56900
O336        O  0.11895984  0.30579861  0.37691089    -0.60200
In337      In  0.58955136  0.15800833  0.85860375     1.36900
C338        C  0.58754819  0.13801368  0.88917890     0.77500
O339        O  0.61008111  0.17639398  0.87316401    -0.60900
O340        O  0.59116792  0.18798880  0.85472542    -0.51800
C341        C  0.60453102  0.14553475  0.82770236     0.70200
O342        O  0.59958881  0.13503026  0.84038647    -0.46700
C343        C  0.55454648  0.16040440  0.84951968     0.74900
O344        O  0.60187470  0.13826766  0.87961178    -0.58500
O345        O  0.56274017  0.17250503  0.85858880    -0.48600
O346        O  0.57525677  0.14854826  0.88351494    -0.55000
C347        C  0.60409383  0.19073615  0.86559640     0.85100
O348        O  0.60321889  0.16224402  0.83154616    -0.56900
O349        O  0.56434709  0.14699512  0.84492462    -0.60200
In350      In  0.38523691  0.15382335  0.86002329     1.36900
C351        C  0.38761616  0.13564980  0.89153639     0.77500
O352        O  0.41080662  0.14427128  0.84616183    -0.60900
O353        O  0.41138297  0.16958948  0.86030431    -0.51800
C354        C  0.37102500  0.13959090  0.82957293     0.70200
O355        O  0.36900756  0.15605161  0.83416599    -0.46700
C356        C  0.37026535  0.18637780  0.86502735     0.74900
O357        O  0.37313657  0.13522699  0.88224786    -0.58500
O358        O  0.38398365  0.18349780  0.85518279    -0.48600
O359        O  0.39974354  0.14578203  0.88500513    -0.55000
C360        C  0.42006608  0.15795579  0.85105831     0.85100
O361        O  0.37879950  0.12990372  0.84145824    -0.56900
O362        O  0.36380563  0.17225430  0.87262439    -0.60200
In363      In  0.62966711  0.88262455  0.67126939     1.36900
C364        C  0.59862134  0.88254292  0.65159621     0.77500
O365        O  0.62383118  0.85953686  0.69135254    -0.60900
O366        O  0.62333186  0.88690225  0.70072164    -0.51800
C367        C  0.66245913  0.86843752  0.66297014     0.70200
O368        O  0.64798303  0.86254722  0.65575656    -0.46700
C369        C  0.63768184  0.91783637  0.66755097     0.74900
O370        O  0.61251696  0.87355485  0.64679259    -0.58500
O371        O  0.63726313  0.90974579  0.68266449    -0.48600
O372        O  0.60029267  0.89016369  0.66692393    -0.55000
C373        C  0.62203976  0.87027260  0.70479479     0.85100
O374        O  0.65989179  0.88087730  0.67453334    -0.56900
O375        O  0.63438336  0.90773351  0.65397905    -0.60200
In376      In  0.63394451  0.08875618  0.66740260     1.36900
C377        C  0.60248916  0.09064574  0.64887498     0.77500
O378        O  0.63685655  0.06235954  0.65215839    -0.60900
O379        O  0.64428601  0.06272788  0.68000344    -0.51800
C380        C  0.66639384  0.10157619  0.65677114     0.70200
O381        O  0.65359020  0.09825850  0.64583331    -0.46700
C382        C  0.62500049  0.10213848  0.69995731     0.74900
O383        O  0.61558203  0.10133836  0.64546383    -0.58500
O384        O  0.62638329  0.08529987  0.69651887    -0.48600
O385        O  0.60530111  0.08023749  0.66224024    -0.55000
C386        C  0.64242451  0.05340911  0.66567913     0.85100
O387        O  0.66209389  0.09981787  0.67327529    -0.56900
O388        O  0.62753133  0.11246720  0.68633199    -0.60200
In389      In  0.58564595  0.82126334  0.86573571     1.36900
C390        C  0.58436337  0.84350238  0.89494784     0.77500
O391        O  0.56042207  0.83493409  0.85552329    -0.60900
O392        O  0.56016422  0.80605355  0.85837901    -0.51800
C393        C  0.59950863  0.83133878  0.83360613     0.70200
O394        O  0.59989370  0.84170685  0.84740411    -0.46700
C395        C  0.59937192  0.78913285  0.87657001     0.74900
O396        O  0.59890774  0.84127133  0.88600525    -0.58500
O397        O  0.58326898  0.79408722  0.87960743    -0.48600
O398        O  0.57139086  0.83381001  0.88939562    -0.55000
C399        C  0.55137166  0.82032724  0.85443291     0.85100
O400        O  0.59297110  0.81572109  0.83665034    -0.56900
O401        O  0.60905771  0.80124038  0.86908083    -0.60200
In402      In  0.38199897  0.82371366  0.86356919     1.36900
C403        C  0.38584905  0.84477018  0.89354707     0.77500
O404        O  0.35715599  0.80595708  0.87059329    -0.60900
O405        O  0.38339379  0.79416119  0.87031723    -0.51800
C406        C  0.37074527  0.83357539  0.83016816     0.70200
O407        O  0.36933838  0.84406730  0.84380793    -0.46700
C408        C  0.41677817  0.82282120  0.85459229     0.74900
O409        O  0.37142039  0.84527279  0.88413309    -0.58500
O410        O  0.40781803  0.80869809  0.85862937    -0.48600
O411        O  0.39686212  0.83265201  0.88849660    -0.55000
C412        C  0.36659454  0.79151524  0.87187763     0.85100
O413        O  0.37655932  0.81787918  0.83396662    -0.56900
O414        O  0.40769237  0.83748622  0.85453390    -0.60200
In415      In  0.35676165  0.88693873  0.66687504     1.36900
C416        C  0.38791879  0.88909390  0.64768605     0.77500
O417        O  0.34762071  0.91170777  0.65156396    -0.60900
O418        O  0.34990982  0.91332571  0.68041897    -0.51800
C419        C  0.32401352  0.87499662  0.65647175     0.70200
O420        O  0.33791629  0.87326688  0.64644669    -0.46700
C421        C  0.36362550  0.87246741  0.69955313     0.74900
O422        O  0.37765699  0.87523304  0.64655569    -0.58500
O423        O  0.36449048  0.88925152  0.69594488    -0.48600
O424        O  0.38280423  0.90062516  0.65934336    -0.55000
C425        C  0.34599887  0.92136690  0.66574859     0.85100
O426        O  0.32728349  0.88159271  0.67196988    -0.56900
O427        O  0.36054424  0.86240236  0.68583596    -0.60200
In428      In  0.35470496  0.08908412  0.66604917     1.36900
C429        C  0.38612857  0.08761442  0.64753192     0.77500
O430        O  0.36015479  0.11220941  0.68587580    -0.60900
O431        O  0.36294359  0.08473240  0.69492474    -0.51800
C432        C  0.32327521  0.10347171  0.65475068     0.70200
O433        O  0.33538451  0.09804648  0.64381975    -0.46700
C434        C  0.34183962  0.05525898  0.66520283     0.74900
O435        O  0.38099584  0.07591877  0.65897303    -0.58500
O436        O  0.34319320  0.06430890  0.67976985    -0.48600
O437        O  0.37570292  0.10135587  0.64634640    -0.55000
C438        C  0.36307717  0.10147222  0.69910392     0.85100
O439        O  0.32805371  0.10323655  0.67121294    -0.56900
O440        O  0.34666627  0.06373074  0.65108961    -0.60200
In441      In  0.84285079  0.59023023  0.16905988     1.36900
C442        C  0.87417897  0.59099636  0.14988733     0.77500
O443        O  0.85458438  0.61231045  0.18754827    -0.60900
O444        O  0.83815646  0.59139706  0.19896969    -0.51800
C445        C  0.81075059  0.60265977  0.15691142     0.70200
O446        O  0.82298109  0.59676531  0.14635649    -0.46700
C447        C  0.83688688  0.55446972  0.17182247     0.74900
O448        O  0.86219058  0.60329793  0.14806248    -0.58500
O449        O  0.84495409  0.56369776  0.18383487    -0.48600
O450        O  0.87031500  0.57933000  0.16186311    -0.55000
C451        C  0.84754046  0.60551183  0.20178453     0.85100
O452        O  0.81559677  0.60366974  0.17330969    -0.56900
O453        O  0.83162438  0.56361354  0.15825545    -0.60200
In454      In  0.85006228  0.38379023  0.17177142     1.36900
C455        C  0.87999205  0.38659997  0.15122582     0.77500
O456        O  0.83650532  0.40906169  0.16097573    -0.60900
O457        O  0.85129355  0.41085885  0.18578259    -0.51800
C458        C  0.81789185  0.37080266  0.16117683     0.70200
O459        O  0.83098182  0.37243930  0.15014207    -0.46700
C460        C  0.85651733  0.36815986  0.20372663     0.74900
O461        O  0.87032220  0.37227790  0.15070614    -0.58500
O462        O  0.84801075  0.38289524  0.20164578    -0.48600
O463        O  0.87493905  0.39811913  0.16292745    -0.55000
C464        C  0.84177314  0.41900301  0.17403848     0.85100
O465        O  0.82194245  0.37415442  0.17746631    -0.56900
O466        O  0.86249185  0.36114803  0.18910747    -0.60200
In467      In  0.65088441  0.35367305  0.89915442     1.36900
C468        C  0.62484614  0.37853794  0.89326089     0.77500
O469        O  0.64162728  0.34548206  0.92680141    -0.60900
O470        O  0.65830228  0.36910470  0.92451087    -0.51800
C471        C  0.64363593  0.31944077  0.88931924     0.70200
O472        O  0.63885913  0.33297090  0.87972226    -0.46700
C473        C  0.68505251  0.35650651  0.88681512     0.74900
O474        O  0.62157554  0.36249890  0.89853085    -0.58500
O475        O  0.68102973  0.35306719  0.90314012    -0.48600
O476        O  0.64130271  0.38130928  0.88914086    -0.55000
C477        C  0.64942959  0.35855986  0.93481572     0.85100
O478        O  0.65245597  0.32357085  0.90343063    -0.56900
O479        O  0.67142738  0.35912330  0.87660875    -0.60200
In480      In  0.65504658  0.36502898  0.10601001     1.36900
C481        C  0.63312484  0.39394030  0.11014498     0.77500
O482        O  0.67507498  0.36962446  0.12920919    -0.60900
O483        O  0.68508863  0.36284620  0.10296164    -0.51800
C484        C  0.64651548  0.33090573  0.11574206     0.70200
O485        O  0.64097148  0.34467113  0.12470291    -0.46700
C486        C  0.65158198  0.36621273  0.07009033     0.74900
O487        O  0.62787786  0.37781360  0.11329102    -0.58500
O488        O  0.66305525  0.37578164  0.07857192    -0.48600
O489        O  0.64999087  0.39534186  0.10745710    -0.55000
C490        C  0.68880872  0.36621131  0.11936213     0.85100
O491        O  0.65642241  0.33482089  0.10228492    -0.56900
O492        O  0.64200318  0.35600903  0.08003776    -0.60200
In493      In  0.64624161  0.62549450  0.90269817     1.36900
C494        C  0.62829366  0.59355163  0.90151213     0.77500
O495        O  0.66615906  0.62078857  0.87953140    -0.60900
O496        O  0.67575450  0.62041828  0.90687765    -0.51800
C497        C  0.63419503  0.65766049  0.89041974     0.70200
O498        O  0.62394154  0.64597215  0.89767810    -0.46700
C499        C  0.64594586  0.63634762  0.93718795     0.74900
O500        O  0.62608210  0.60567002  0.88945264    -0.58500
O501        O  0.66037736  0.63342042  0.92842880    -0.48600
O502        O  0.64047466  0.59734654  0.91290892    -0.55000
C503        C  0.67969439  0.61943128  0.89017348     0.85100
O504        O  0.65017815  0.65210653  0.88768782    -0.56900
O505        O  0.63158739  0.63384088  0.92820783    -0.60200
In506      In  0.64846733  0.62221514  0.10548149     1.36900
C507        C  0.62618926  0.59316089  0.10403991     0.77500
O508        O  0.63273484  0.63066960  0.08056218    -0.60900
O509        O  0.66153738  0.62897731  0.07907982    -0.51800
C510        C  0.64244515  0.65617800  0.11756957     0.70200
O511        O  0.63287715  0.64279404  0.12284544    -0.46700
C512        C  0.68052722  0.61223856  0.11922600     0.74900
O513        O  0.62422981  0.60538750  0.11611066    -0.58500
O514        O  0.67648972  0.61125359  0.10261693    -0.48600
O515        O  0.64015465  0.59514735  0.09433866    -0.55000
C516        C  0.64686681  0.63249056  0.07094685     0.85100
O517        O  0.65527962  0.65182798  0.10712007    -0.56900
O518        O  0.66746305  0.61694324  0.12942525    -0.60200
In519      In  0.84035900  0.59050757  0.83734538     1.36900
C520        C  0.87227728  0.59109266  0.85530828     0.77500
O521        O  0.82982274  0.56487043  0.85104045    -0.60900
O522        O  0.83949729  0.56311549  0.82393954    -0.51800
C523        C  0.80867042  0.60417004  0.84938550     0.70200
O524        O  0.82132977  0.59955217  0.86001323    -0.46700
C525        C  0.84543225  0.60516848  0.80431337     0.74900
O526        O  0.86010885  0.60298414  0.85815570    -0.58500
O527        O  0.83850016  0.58966155  0.80701390    -0.48600
O528        O  0.86842029  0.58006876  0.84270772    -0.55000
C529        C  0.83298413  0.55480009  0.83744393     0.85100
O530        O  0.81276182  0.60296271  0.83277566    -0.56900
O531        O  0.84991560  0.61356099  0.81877446    -0.60200
In532      In  0.84653768  0.38407048  0.83743472     1.36900
C533        C  0.87765599  0.38771943  0.85644454     0.77500
O534        O  0.85754925  0.36080598  0.81960899    -0.60900
O535        O  0.84580533  0.38412542  0.80720618    -0.51800
C536        C  0.81441858  0.36984518  0.84725838     0.70200
O537        O  0.82782227  0.37025110  0.85805208    -0.46700
C538        C  0.83730640  0.41914197  0.83792579     0.74900
O539        O  0.87238528  0.39843691  0.84414527    -0.58500
O540        O  0.84493332  0.41141363  0.82458373    -0.48600
O541        O  0.86758539  0.37379898  0.85838403    -0.55000
C542        C  0.85284741  0.36862309  0.80495339     0.85100
O543        O  0.81795776  0.37564957  0.83155226    -0.56900
O544        O  0.83415219  0.40877551  0.85131545    -0.60200
In545      In  0.16305133  0.85704011  0.59795494     1.36900
C546        C  0.14229863  0.88692462  0.60003054     0.77500
O547        O  0.18201526  0.86341163  0.62164971    -0.60900
O548        O  0.19300724  0.85341376  0.59683737    -0.51800
C549        C  0.15308787  0.82375311  0.60876721     0.70200
O550        O  0.14858221  0.83796305  0.61757288    -0.46700
C551        C  0.16198486  0.85739802  0.56197937     0.74900
O552        O  0.13626026  0.87111767  0.60333337    -0.58500
O553        O  0.17480951  0.86435475  0.57100890    -0.48600
O554        O  0.15926178  0.88756289  0.59775938    -0.55000
C555        C  0.19610733  0.85886125  0.61281305     0.85100
O556        O  0.16253232  0.82679215  0.59478215    -0.56900
O557        O  0.14969371  0.85002532  0.57143687    -0.60200
In558      In  0.16156167  0.85680112  0.39014915     1.36900
C559        C  0.13648138  0.88318651  0.38684299     0.77500
O560        O  0.15267218  0.84601598  0.41716842    -0.60900
O561        O  0.17097003  0.86844579  0.41683163    -0.51800
C562        C  0.15394933  0.82297176  0.37849596     0.70200
O563        O  0.14663606  0.83701188  0.37163798    -0.46700
C564        C  0.19502300  0.86278746  0.37729992     0.74900
O565        O  0.13310728  0.86744869  0.39281318    -0.58500
O566        O  0.19130746  0.86073934  0.39392673    -0.48600
O567        O  0.15244414  0.88502783  0.38079990    -0.55000
C568        C  0.16181189  0.85738607  0.42626605     0.85100
O569        O  0.16575057  0.82640866  0.39044941    -0.56900
O570        O  0.18135535  0.86195790  0.36682486    -0.60200
In571      In  0.88736128  0.65649465  0.64518634     1.36900
C572        C  0.88876200  0.63135561  0.61834013     0.77500
O573        O  0.86392066  0.67415607  0.63473392    -0.60900
O574        O  0.88817728  0.68693683  0.64363346    -0.51800
C575        C  0.87302376  0.64728640  0.67751568     0.70200
O576        O  0.86921180  0.63867210  0.66308390    -0.46700
C577        C  0.92295991  0.66091936  0.64801248     0.74900
O578        O  0.89825888  0.63060928  0.63256092    -0.58500
O579        O  0.91350655  0.66895520  0.63608267    -0.48600
O580        O  0.87773697  0.64460631  0.61811627    -0.55000
C581        C  0.87235737  0.68898979  0.63743010     0.85100
O582        O  0.88335747  0.66072588  0.67506941    -0.56900
O583        O  0.91406756  0.65082058  0.65871980    -0.60200
In584      In  0.09381858  0.66415077  0.63632035     1.36900
C585        C  0.09582551  0.64444481  0.60569565     0.77500
O586        O  0.06813681  0.65008353  0.64538301    -0.60900
O587        O  0.06614270  0.67540090  0.63144956    -0.51800
C588        C  0.10344856  0.65479667  0.66996233     0.70200
O589        O  0.10949351  0.64637022  0.65613612    -0.46700
C590        C  0.11035204  0.69637920  0.63254451     0.74900
O591        O  0.10240694  0.63875949  0.62055247    -0.58500
O592        O  0.09412201  0.69441561  0.63752170    -0.48600
O593        O  0.08966445  0.66050134  0.60643532    -0.55000
C594        C  0.05793645  0.66249026  0.63926040     0.85100
O595        O  0.09346581  0.66828401  0.66630431    -0.56900
O596        O  0.11862275  0.68153182  0.62932937    -0.60200
In597      In  0.82114207  0.85009141  0.59920872     1.36900
C598        C  0.84076587  0.88097601  0.60148412     0.77500
O599        O  0.83547381  0.84265867  0.57323594    -0.60900
O600        O  0.81010959  0.85654622  0.57172592    -0.51800
C601        C  0.83104303  0.81639506  0.60909208     0.70200
O602        O  0.83656896  0.83051418  0.61745954    -0.46700
C603        C  0.78855727  0.85158042  0.61549733     0.74900
O604        O  0.84673012  0.86583726  0.60728183    -0.58500
O605        O  0.79097843  0.84627451  0.59935398    -0.48600
O606        O  0.82442391  0.88043639  0.59638305    -0.55000
C607        C  0.82332713  0.84955959  0.56324144     0.85100
O608        O  0.82067121  0.81970250  0.59585560    -0.56900
O609        O  0.80296574  0.85650489  0.62351804    -0.60200
In610      In  0.82547599  0.84653257  0.39151678     1.36900
C611        C  0.84963609  0.87362062  0.38772801     0.77500
O612        O  0.80609874  0.85504476  0.36899768    -0.60900
O613        O  0.79527284  0.84551030  0.39406787    -0.51800
C614        C  0.83249893  0.81256370  0.38020515     0.70200
O615        O  0.83908139  0.82634381  0.37215220    -0.46700
C616        C  0.82624410  0.84805044  0.42754855     0.74900
O617        O  0.85398608  0.85761076  0.39230322    -0.58500
O618        O  0.81541540  0.85750020  0.41812831    -0.48600
O619        O  0.83313670  0.87538110  0.38335010    -0.55000
C620        C  0.79202310  0.85145883  0.37828613     0.85100
O621        O  0.82202486  0.81641803  0.39318871    -0.56900
O622        O  0.83668475  0.83787782  0.41845886    -0.60200
In623      In  0.88676471  0.64897144  0.36431718     1.36900
C624        C  0.88353512  0.62885897  0.39486616     0.77500
O625        O  0.91385582  0.63513309  0.36030043    -0.60900
O626        O  0.91323911  0.66317970  0.36790453    -0.51800
C627        C  0.87563659  0.63988206  0.33068449     0.70200
O628        O  0.86551907  0.63779073  0.34447094    -0.46700
C629        C  0.87254270  0.68259979  0.36653735     0.74900
O630        O  0.88091755  0.62212624  0.37920746    -0.58500
O631        O  0.88794038  0.67908459  0.35995578    -0.48600
O632        O  0.88638939  0.64585511  0.39473785    -0.55000
C633        C  0.92278731  0.64951236  0.36361652     0.85100
O634        O  0.89122946  0.64579537  0.33438931    -0.56900
O635        O  0.86401058  0.66867964  0.37216245    -0.60200
In636      In  0.09325137  0.66141061  0.36327612     1.36900
C637        C  0.09322694  0.64138164  0.39399208     0.77500
O638        O  0.11800758  0.67992116  0.36791429    -0.60900
O639        O  0.09203199  0.69183596  0.36495299    -0.51800
C640        C  0.10210428  0.65080388  0.32955493     0.70200
O641        O  0.10915086  0.64354907  0.34350625    -0.46700
C642        C  0.05765667  0.65896554  0.35866166     0.74900
O643        O  0.10443403  0.63812421  0.38133325    -0.58500
O644        O  0.06545232  0.67346588  0.36376643    -0.48600
O645        O  0.08405330  0.65569817  0.39159780    -0.55000
C646        C  0.10877572  0.69448783  0.36687544     0.85100
O647        O  0.09144981  0.66380110  0.33303017    -0.56900
O648        O  0.06818685  0.64561103  0.35578121    -0.60200
C649        C  0.99741073  0.68802212  0.36125788    -0.17900
C650        C  0.97851895  0.68658423  0.36251555    -0.20000
C651        C  0.97006329  0.66942191  0.36134874     0.20600
C652        C  0.98064423  0.65358132  0.35840493    -0.03000
C653        C  0.99970711  0.65503515  0.35711188    -0.06000
C654        C  0.00811169  0.67231506  0.35882361     0.20900
C655        C  0.01036903  0.63916838  0.35455539     0.19000
C656        C  0.00184553  0.62207215  0.35286524    -0.17500
C657        C  0.98291480  0.62063408  0.35411532    -0.19700
C658        C  0.97221240  0.63627095  0.35707239     0.20500
C659        C  0.95325771  0.63492014  0.35886101    -0.32700
C660        C  0.94272376  0.65065398  0.36206976     0.01200
C661        C  0.95121518  0.66783331  0.36322157    -0.24100
C662        C  0.02708975  0.67352747  0.35862518    -0.28700
C663        C  0.03778323  0.65770158  0.35679848     0.06900
C664        C  0.02937252  0.64062549  0.35429021    -0.27300
H665        H  0.00367452  0.70138776  0.36248522     0.11600
H666        H  0.97053302  0.69887514  0.36463513     0.12700
H667        H  0.00983953  0.60977558  0.35084055     0.11800
H668        H  0.97665920  0.60726052  0.35297531     0.11100
H669        H  0.94672802  0.62166126  0.35784787     0.16500
H670        H  0.94312471  0.68004025  0.36549429     0.12400
H671        H  0.03354639  0.68675190  0.36038784     0.15200
H672        H  0.03760611  0.62840345  0.35279950     0.15000
C673        C  0.82775556  0.72852167  0.38829976    -0.17900
C674        C  0.82208883  0.74674119  0.38988788    -0.20000
C675        C  0.83204945  0.76084334  0.38159375     0.20600
C676        C  0.84775889  0.75657636  0.37142377    -0.03000
C677        C  0.85352716  0.73818849  0.36989713    -0.06000
C678        C  0.84350904  0.72408495  0.37842675     0.20900
C679        C  0.86944730  0.73396156  0.36004789     0.19000
C680        C  0.87932729  0.74805540  0.35163433    -0.17500
C681        C  0.87359156  0.76626130  0.35311422    -0.19700
C682        C  0.85788561  0.77069977  0.36305395     0.20500
C683        C  0.85238083  0.78901740  0.36515641    -0.32700
C684        C  0.83704028  0.79335805  0.37574209     0.01200
C685        C  0.82680933  0.77916661  0.38366796    -0.24100
C686        C  0.84953642  0.70585163  0.37710188    -0.28700
C687        C  0.86553573  0.70159655  0.36748881     0.06900
C688        C  0.87533552  0.71574583  0.35893922    -0.27300
H689        H  0.81989284  0.71790944  0.39493172     0.11600
H690        H  0.80998270  0.74982114  0.39774683     0.12700
H691        H  0.89158390  0.74500757  0.34400142     0.11800
H692        H  0.88154695  0.77689293  0.34662693     0.11100
H693        H  0.86039756  0.79989992  0.35915745     0.16500
H694        H  0.81495225  0.78241692  0.39185120     0.12400
H695        H  0.84195399  0.69504125  0.38375869     0.15200
H696        H  0.88766855  0.71259620  0.35145697     0.15000
C697        C  0.84968200  0.82591783  0.48656729    -0.17900
C698        C  0.84929173  0.82612726  0.50563831    -0.20000
C699        C  0.83730878  0.83780985  0.51497174     0.20600
C700        C  0.82560835  0.84939791  0.50500392    -0.03000
C701        C  0.82606238  0.84925029  0.48581167    -0.06000
C702        C  0.83812970  0.83742512  0.47655132     0.20900
C703        C  0.81434721  0.86086640  0.47590235     0.19000
C704        C  0.80235458  0.87252401  0.48519895    -0.17500
C705        C  0.80184658  0.87261216  0.50421830    -0.19700
C706        C  0.81336671  0.86108517  0.51420415     0.20500
C707        C  0.81277864  0.86100163  0.53324120    -0.32700
C708        C  0.82437278  0.84954039  0.54323871     0.01200
C709        C  0.83671343  0.83806227  0.53408000    -0.24100
C710        C  0.83830223  0.83723928  0.45744827    -0.28700
C711        C  0.82652392  0.84868587  0.44756653     0.06900
C712        C  0.81469351  0.86052724  0.45685906    -0.27300
H713        H  0.85899728  0.81674028  0.47965199     0.11600
H714        H  0.85831904  0.81711435  0.51308680     0.12700
H715        H  0.79329505  0.88151071  0.47775333     0.11800
H716        H  0.79240809  0.88166918  0.51112366     0.11100
H717        H  0.80332319  0.86994198  0.54030010     0.16500
H718        H  0.84563256  0.82916289  0.54180540     0.12400
H719        H  0.84746179  0.82807889  0.45028739     0.15200
H720        H  0.80561583  0.86938436  0.44926286     0.15000
C721        C  0.86935926  0.77326840  0.64389697    -0.17900
C722        C  0.87505768  0.75544451  0.64774979    -0.20000
C723        C  0.86679672  0.74042834  0.63915533     0.20600
C724        C  0.85245108  0.74331914  0.62675153    -0.03000
C725        C  0.84678953  0.76136656  0.62273653    -0.06000
C726        C  0.85535549  0.77640036  0.63131500     0.20900
C727        C  0.83276279  0.76437391  0.60999081     0.19000
C728        C  0.82427344  0.74929482  0.60165680    -0.17500
C729        C  0.82978836  0.73138956  0.60575430    -0.19700
C730        C  0.84396932  0.72822039  0.61818742     0.20500
C731        C  0.85005326  0.71031183  0.62200668    -0.32700
C732        C  0.86474426  0.70746070  0.63398391     0.01200
C733        C  0.87286946  0.72260553  0.64258134    -0.24100
C734        C  0.84995050  0.79431100  0.62702838    -0.28700
C735        C  0.83623185  0.79745888  0.61410562     0.06900
C736        C  0.82763037  0.78239846  0.60569459    -0.27300
H737        H  0.87604950  0.78462848  0.65062794     0.11600
H738        H  0.88604975  0.75340880  0.65737182     0.12700
H739        H  0.81342762  0.75135134  0.59187739     0.11800
H740        H  0.82308673  0.72002514  0.59904384     0.11100
H741        H  0.84373990  0.69870076  0.61532143     0.16500
H742        H  0.88406978  0.72051780  0.65196386     0.12400
H743        H  0.85663971  0.80581687  0.63353328     0.15200
H744        H  0.81696704  0.78470160  0.59576033     0.15000
C745        C  0.99826938  0.68730721  0.62251687    -0.17900
C746        C  0.97937421  0.68753408  0.62418817    -0.20000
C747        C  0.97063467  0.67547291  0.63616456     0.20600
C748        C  0.98099793  0.66319628  0.64676756    -0.03000
C749        C  0.00007319  0.66291116  0.64502145    -0.06000
C750        C  0.00868874  0.67501347  0.63279505     0.20900
C751        C  0.01049069  0.65041710  0.65532921     0.19000
C752        C  0.00172278  0.63850419  0.66748167    -0.17500
C753        C  0.98276616  0.63880476  0.66923554    -0.19700
C754        C  0.97228359  0.65099550  0.65883497     0.20500
C755        C  0.95323144  0.65087409  0.65986459    -0.32700
C756        C  0.94288105  0.66261857  0.64878110     0.01200
C757        C  0.95167374  0.67514103  0.63730518    -0.24100
C758        C  0.02758504  0.67462198  0.63100216    -0.28700
C759        C  0.03804052  0.66222103  0.64113884     0.06900
C760        C  0.02946333  0.65008370  0.65324897    -0.27300
H761        H  0.00473256  0.69667336  0.61308780     0.11600
H762        H  0.97157549  0.69702285  0.61597068     0.12700
H763        H  0.00951367  0.62887963  0.67554238     0.11800
H764        H  0.97628912  0.62935813  0.67856874     0.11100
H765        H  0.94646546  0.64119543  0.66875902     0.16500
H766        H  0.94372981  0.68429510  0.62883508     0.12400
H767        H  0.03417178  0.68396961  0.62162344     0.15200
H768        H  0.03754669  0.64057321  0.66117003     0.15000
C769        C  0.10754073  0.77876721  0.35777914    -0.17900
C770        C  0.10105029  0.76079191  0.35683236    -0.20000
C771        C  0.11207358  0.74607619  0.36225468     0.20600
C772        C  0.12994273  0.74943901  0.36833077    -0.03000
C773        C  0.13642235  0.76762720  0.36950578    -0.06000
C774        C  0.12511500  0.78236391  0.36431184     0.20900
C775        C  0.15402648  0.77107887  0.37631088     0.19000
C776        C  0.16523252  0.75630862  0.38119149    -0.17500
C777        C  0.15892087  0.73827632  0.37973577    -0.19700
C778        C  0.14120646  0.73467420  0.37357574     0.20500
C779        C  0.13445382  0.71663953  0.37285106    -0.32700
C780        C  0.11645679  0.71326953  0.36731479     0.01200
C781        C  0.10543859  0.72809112  0.36192254    -0.24100
C782        C  0.13135832  0.80043935  0.36627748    -0.28700
C783        C  0.14856476  0.80399793  0.37383827     0.06900
C784        C  0.15991612  0.78923306  0.37858353    -0.27300
H785        H  0.09868524  0.78988772  0.35370695     0.11600
H786        H  0.08732418  0.75841199  0.35201859     0.12700
H787        H  0.17883407  0.75871203  0.38633392     0.11800
H788        H  0.16780098  0.72715373  0.38374258     0.11100
H789        H  0.14304216  0.70530644  0.37693059     0.16500
H790        H  0.09161666  0.72562902  0.35740744     0.12400
H791        H  0.12249101  0.81174734  0.36274303     0.15200
H792        H  0.17321016  0.79188939  0.38439344     0.15000
C793        C  0.15538895  0.73912093  0.60576780    -0.17900
C794        C  0.16108368  0.75705991  0.60230921    -0.20000
C795        C  0.15185374  0.77197982  0.61010188     0.20600
C796        C  0.13691722  0.76883405  0.62172089    -0.03000
C797        C  0.13108355  0.75073920  0.62509140    -0.06000
C798        C  0.14030259  0.73578906  0.61700561     0.20900
C799        C  0.11581560  0.74764703  0.63627584     0.19000
C800        C  0.10677317  0.76253579  0.64432496    -0.17500
C801        C  0.11264373  0.78044286  0.64110868    -0.19700
C802        C  0.12760835  0.78377022  0.62971815     0.20500
C803        C  0.13323241  0.80175166  0.62592650    -0.32700
C804        C  0.14782204  0.80495045  0.61397790     0.01200
C805        C  0.15712676  0.78998964  0.60624263    -0.24100
C806        C  0.13400559  0.71784912  0.61997956    -0.28700
C807        C  0.11842507  0.71480144  0.63065335     0.06900
C808        C  0.10959538  0.72975542  0.63892661    -0.27300
H809        H  0.16264585  0.72786080  0.59945589     0.11600
H810        H  0.17262982  0.75927256  0.59340192     0.12700
H811        H  0.09503838  0.76033849  0.65298902     0.11800
H812        H  0.10534088  0.79170502  0.64736205     0.11100
H813        H  0.12597009  0.81322973  0.63184757     0.16500
H814        H  0.16845775  0.79237351  0.59708754     0.12400
H815        H  0.14081157  0.70637733  0.61352367     0.15200
H816        H  0.09764333  0.72748486  0.64728549     0.15000
C817        C  0.18799645  0.87793150  0.48466884    -0.17900
C818        C  0.18799075  0.87789685  0.50371897    -0.20000
C819        C  0.17480935  0.86795671  0.51334277     0.20600
C820        C  0.16152837  0.85788885  0.50374072    -0.03000
C821        C  0.16161658  0.85781487  0.48454654    -0.06000
C822        C  0.17486403  0.86796532  0.47497523     0.20900
C823        C  0.14847417  0.84756032  0.47494588     0.19000
C824        C  0.13534173  0.83755718  0.48457467    -0.17500
C825        C  0.13517309  0.83773889  0.50362215    -0.19700
C826        C  0.14819810  0.84784525  0.51330897     0.20500
C827        C  0.14822742  0.84796953  0.53239230    -0.32700
C828        C  0.16155852  0.85779607  0.54197599     0.01200
C829        C  0.17474612  0.86781514  0.53240296    -0.24100
C830        C  0.17475908  0.86792305  0.45588288    -0.28700
C831        C  0.16175743  0.85764828  0.44629510     0.06900
C832        C  0.14869709  0.84747696  0.45587910    -0.27300
H833        H  0.19828960  0.88572900  0.47751396     0.11600
H834        H  0.19829062  0.88565586  0.51092938     0.12700
H835        H  0.12518284  0.82961355  0.47737000     0.11800
H836        H  0.12489539  0.82992516  0.51077762     0.11100
H837        H  0.13804763  0.84021947  0.53977414     0.16500
H838        H  0.18500882  0.87547332  0.53979025     0.12400
H839        H  0.18490101  0.87571534  0.44848799     0.15200
H840        H  0.13861654  0.83958654  0.44848755     0.15000
C841        C  0.87314224  0.65780459  0.74392260    -0.17900
C842        C  0.86944560  0.65196512  0.76170181    -0.20000
C843        C  0.86015894  0.63548715  0.76477248     0.20600
C844        C  0.85423219  0.62497367  0.74970537    -0.03000
C845        C  0.85793567  0.63089184  0.73173245    -0.06000
C846        C  0.86759307  0.64729226  0.72888189     0.20900
C847        C  0.85229482  0.62023401  0.71665534     0.19000
C848        C  0.84268554  0.60393550  0.71971988    -0.17500
C849        C  0.83901943  0.59807090  0.73751943    -0.19700
C850        C  0.84489613  0.60839268  0.75258804     0.20500
C851        C  0.84186486  0.60227281  0.77047261    -0.32700
C852        C  0.84804393  0.61246655  0.78559824     0.01200
C853        C  0.85697720  0.62919882  0.78261784    -0.24100
C854        C  0.87187634  0.65272810  0.71107325    -0.28700
C855        C  0.86673296  0.64199446  0.69596950     0.06900
C856        C  0.85670081  0.62587131  0.69884333    -0.27300
H857        H  0.88053489  0.67047026  0.74193993     0.11600
H858        H  0.87404657  0.66024529  0.77306785     0.12700
H859        H  0.83818785  0.59560298  0.70835095     0.11800
H860        H  0.83175659  0.58533239  0.73950297     0.11100
H861        H  0.83487098  0.58939694  0.77260272     0.16500
H862        H  0.86172669  0.63715584  0.79415827     0.12400
H863        H  0.87960605  0.66518429  0.70900652     0.15200
H864        H  0.85272607  0.61751100  0.68729045     0.15000
C865        C  0.82248306  0.47716954  0.86967769    -0.17900
C866        C  0.82183645  0.49633566  0.86957360    -0.20000
C867        C  0.82527486  0.50608814  0.85345149     0.20600
C868        C  0.82887221  0.49640147  0.83716850    -0.03000
C869        C  0.82948816  0.47711978  0.83726601    -0.06000
C870        C  0.82654901  0.46743647  0.85365374     0.20900
C871        C  0.83362771  0.46757397  0.82105023     0.19000
C872        C  0.83660845  0.47723156  0.80483037    -0.17500
C873        C  0.83603646  0.49630498  0.80474271    -0.19700
C874        C  0.83244259  0.50598298  0.82086789     0.20500
C875        C  0.83296311  0.52508562  0.82105090    -0.32700
C876        C  0.83008688  0.53484056  0.83730508     0.01200
C877        C  0.82579631  0.52531764  0.85339811    -0.24100
C878        C  0.82832395  0.44827521  0.85378502    -0.28700
C879        C  0.83315620  0.43885764  0.83775054     0.06900
C880        C  0.83533432  0.44856232  0.82140356    -0.27300
H881        H  0.82012432  0.46997497  0.88236353     0.11600
H882        H  0.81899043  0.50354051  0.88218244     0.12700
H883        H  0.83974467  0.47004068  0.79227810     0.11800
H884        H  0.83874244  0.50350222  0.79212499     0.11100
H885        H  0.83616622  0.53236226  0.80858346     0.16500
H886        H  0.82354912  0.53281381  0.86596958     0.12400
H887        H  0.82661920  0.44080509  0.86642629     0.15200
H888        H  0.83891633  0.44134511  0.80897225     0.15000
C889        C  0.74412265  0.61594449  0.83541679    -0.17900
C890        C  0.72596347  0.61723023  0.84100467    -0.20000
C891        C  0.72145422  0.61676971  0.85959224     0.20600
C892        C  0.73545562  0.61520893  0.87269159    -0.03000
C893        C  0.75379957  0.61386306  0.86704651    -0.06000
C894        C  0.75811087  0.61411768  0.84830965     0.20900
C895        C  0.76776655  0.61190753  0.88012211     0.19000
C896        C  0.76328985  0.61174243  0.89873061    -0.17500
C897        C  0.74513905  0.61321592  0.90432738    -0.19700
C898        C  0.73112612  0.61480012  0.89141502     0.20500
C899        C  0.71286986  0.61594714  0.89689975    -0.32700
C900        C  0.69879583  0.61744618  0.88394147     0.01200
C901        C  0.70321577  0.61783774  0.86529633    -0.24100
C902        C  0.77625632  0.61199169  0.84275395    -0.28700
C903        C  0.79017644  0.60928985  0.85564372     0.06900
C904        C  0.78586912  0.60963071  0.87433812    -0.27300
H905        H  0.74720958  0.61616075  0.82097119     0.11600
H906        H  0.71542342  0.61847982  0.83076214     0.12700
H907        H  0.77381447  0.61029609  0.90896134     0.11800
H908        H  0.74204472  0.61294870  0.91877032     0.11100
H909        H  0.70962763  0.61573823  0.91132066     0.16500
H910        H  0.69248928  0.61913071  0.85524453     0.12400
H911        H  0.77943311  0.61170576  0.82831983     0.15200
H912        H  0.79650046  0.60752931  0.88435429     0.15000
C913        C  0.67937220  0.64286340  0.01350459    -0.17900
C914        C  0.67926210  0.64364614  0.99449467    -0.20000
C915        C  0.66273498  0.64385314  0.98497801     0.20600
C916        C  0.64614705  0.64425442  0.99466498    -0.03000
C917        C  0.64625813  0.64344568  0.01383599    -0.06000
C918        C  0.66295622  0.64227307  0.02322557     0.20900
C919        C  0.62967328  0.64280945  0.02352958     0.19000
C920        C  0.61316502  0.64399842  0.01401748    -0.17500
C921        C  0.61305311  0.64479559  0.99496956    -0.19700
C922        C  0.62944947  0.64440524  0.98518139     0.20500
C923        C  0.62945635  0.64307102  0.96613041    -0.32700
C924        C  0.64593644  0.64133905  0.95658360     0.01200
C925        C  0.66250705  0.64256961  0.96597688    -0.24100
C926        C  0.66295035  0.63961134  0.04207675    -0.28700
C927        C  0.64649606  0.63784270  0.05164056     0.06900
C928        C  0.62990301  0.64009150  0.04244084    -0.27300
H929        H  0.69229006  0.64210987  0.02057200     0.11600
H930        H  0.69209138  0.64345818  0.98721965     0.12700
H931        H  0.60032951  0.64370324  0.02127243     0.11800
H932        H  0.60013260  0.64507654  0.98787854     0.11100
H933        H  0.61664797  0.64233875  0.95885004     0.16500
H934        H  0.67524277  0.64145835  0.95859765     0.12400
H935        H  0.67579349  0.63812557  0.04918531     0.15200
H936        H  0.61719435  0.63892519  0.04984586     0.15000
C937        C  0.73100760  0.36434213  0.83783737    -0.17900
C938        C  0.74918079  0.36552213  0.83225242    -0.20000
C939        C  0.76335718  0.36328698  0.84488491     0.20600
C940        C  0.75920847  0.35929132  0.86321566    -0.03000
C941        C  0.74084910  0.35807512  0.86884936    -0.06000
C942        C  0.72667352  0.36087136  0.85614875     0.20900
C943        C  0.73669924  0.35445865  0.88726124     0.19000
C944        C  0.75088398  0.35165186  0.89976899    -0.17500
C945        C  0.76905402  0.35295517  0.89421142    -0.19700
C946        C  0.77338004  0.35703540  0.87603181     0.20500
C947        C  0.79156210  0.35953731  0.87059589    -0.32700
C948        C  0.79573454  0.36431044  0.85251535     0.01200
C949        C  0.78156377  0.36563268  0.83964258    -0.24100
C950        C  0.70845327  0.36037352  0.86202266    -0.28700
C951        C  0.70422068  0.35707920  0.88043457     0.06900
C952        C  0.71845918  0.35395627  0.89290661    -0.27300
H953        H  0.72033333  0.36639881  0.82786840     0.11600
H954        H  0.75214474  0.36852138  0.81809741     0.12700
H955        H  0.74792315  0.34873273  0.91394100     0.11800
H956        H  0.77972645  0.35107328  0.90421455     0.11100
H957        H  0.80237747  0.35847333  0.88057545     0.16500
H958        H  0.78462988  0.36925910  0.82564844     0.12400
H959        H  0.69758927  0.36263040  0.85229701     0.15200
H960        H  0.71535626  0.35125661  0.90710025     0.15000
C961        C  0.66905668  0.39104991  0.01012593    -0.17900
C962        C  0.66872632  0.38998741  0.99109472    -0.20000
C963        C  0.65821404  0.37660051  0.98231611     0.20600
C964        C  0.64759394  0.36442304  0.99277693    -0.03000
C965        C  0.64786859  0.36554148  0.01194373    -0.06000
C966        C  0.65883951  0.37877126  0.02065455     0.20900
C967        C  0.63747998  0.35315550  0.02238327     0.19000
C968        C  0.62668548  0.34000093  0.01361360    -0.17500
C969        C  0.62646331  0.33884913  0.99460640    -0.19700
C970        C  0.63700312  0.35086487  0.98410885     0.20500
C971        C  0.63742918  0.34930781  0.96511142    -0.32700
C972        C  0.64832712  0.36108982  0.95466814     0.01200
C973        C  0.65843408  0.37491017  0.96329195    -0.24100
C974        C  0.65969858  0.37920960  0.03972997    -0.28700
C975        C  0.64972308  0.36659712  0.05014179     0.06900
C976        C  0.63838730  0.35385615  0.04141339    -0.27300
H977        H  0.67748551  0.40132706  0.01661685     0.11600
H978        H  0.67690213  0.39946690  0.98324623     0.12700
H979        H  0.61861566  0.33043262  0.02146278     0.11800
H980        H  0.61822535  0.32841492  0.98812327     0.11100
H981        H  0.62949332  0.33871899  0.95847692     0.16500
H982        H  0.66677765  0.38407734  0.95523939     0.12400
H983        H  0.66835379  0.38915014  0.04645678     0.15200
H984        H  0.63062860  0.34414734  0.04942289     0.15000
C985        C  0.75403579  0.35433343  0.10853768    -0.17900
C986        C  0.77215114  0.35458362  0.11437451    -0.20000
C987        C  0.77651815  0.36015704  0.13215512     0.20600
C988        C  0.76241647  0.36524044  0.14426519    -0.03000
C989        C  0.74414769  0.36516267  0.13832024    -0.06000
C990        C  0.73998198  0.35977559  0.12034155     0.20900
C991        C  0.73010047  0.37073519  0.15027565     0.19000
C992        C  0.73445390  0.37611735  0.16812142    -0.17500
C993        C  0.75253652  0.37611109  0.17404085    -0.19700
C994        C  0.76658684  0.37077722  0.16219697     0.20500
C995        C  0.78477010  0.37139641  0.16782556    -0.32700
C996        C  0.79894397  0.36705519  0.15564573     0.01200
C997        C  0.79473014  0.36122015  0.13788826    -0.24100
C998        C  0.72186498  0.36012599  0.11440078    -0.28700
C999        C  0.70778407  0.36584411  0.12614312     0.06900
C1000       C  0.71199490  0.37100024  0.14412053    -0.27300
H1001       H  0.75103504  0.35009779  0.09469914     0.11600
H1002       H  0.78276358  0.35058369  0.10491600     0.12700
H1003       H  0.72387695  0.38044641  0.17747777     0.11800
H1004       H  0.75555479  0.38047695  0.18783858     0.11100
H1005       H  0.78791924  0.37610696  0.18149095     0.16500
H1006       H  0.80560417  0.35794234  0.12844133     0.12400
H1007       H  0.71873991  0.35600444  0.10054844     0.15200
H1008       H  0.70122298  0.37535266  0.15325090     0.15000
C1009       C  0.74481279  0.60058228  0.10464218    -0.17900
C1010       C  0.76317482  0.60045678  0.10957272    -0.20000
C1011       C  0.76838385  0.60422884  0.12758948     0.20600
C1012       C  0.75494213  0.60829701  0.14075707    -0.03000
C1013       C  0.73637751  0.60840818  0.13577821    -0.06000
C1014       C  0.73134125  0.60450681  0.11763960     0.20900
C1015       C  0.72288672  0.61244119  0.14891809     0.19000
C1016       C  0.72812610  0.61625748  0.16693127    -0.17500
C1017       C  0.74652031  0.61601969  0.17189868    -0.19700
C1018       C  0.76002568  0.61202339  0.15892854     0.20500
C1019       C  0.77846635  0.61120000  0.16389562    -0.32700
C1020       C  0.79188636  0.60656410  0.15095440     0.01200
C1021       C  0.78674856  0.60349128  0.13275157    -0.24100
C1022       C  0.71295096  0.60489764  0.11270628    -0.28700
C1023       C  0.69942283  0.60934963  0.12556653     0.06900
C1024       C  0.70446401  0.61288298  0.14372882    -0.27300
H1025       H  0.74114458  0.59761037  0.09063871     0.11600
H1026       H  0.77330408  0.59728281  0.09930645     0.12700
H1027       H  0.71798997  0.61940892  0.17719798     0.11800
H1028       H  0.75018044  0.61888364  0.18592454     0.11100
H1029       H  0.78228872  0.61349575  0.17798761     0.16500
H1030       H  0.79696934  0.59981886  0.12273302     0.12400
H1031       H  0.70922351  0.60224883  0.09864517     0.15200
H1032       H  0.69414016  0.61647333  0.15366853     0.15000
C1033       C  0.83565951  0.60949765  0.28532024    -0.17900
C1034       C  0.83177619  0.60479544  0.26721781    -0.20000
C1035       C  0.84246337  0.61161626  0.25288265     0.20600
C1036       C  0.85696320  0.62360682  0.25676650    -0.03000
C1037       C  0.86099555  0.62820642  0.27506031    -0.06000
C1038       C  0.85037025  0.62101177  0.28943076     0.20900
C1039       C  0.87588596  0.63969006  0.27897426     0.19000
C1040       C  0.88624035  0.64694440  0.26460789    -0.17500
C1041       C  0.88215790  0.64250571  0.24649180    -0.19700
C1042       C  0.86770577  0.63066054  0.24241604     0.20500
C1043       C  0.86412231  0.62536148  0.22431935    -0.32700
C1044       C  0.85014208  0.61285338  0.22044667     0.01200
C1045       C  0.83918949  0.60629382  0.23478790    -0.24100
C1046       C  0.85485657  0.62517327  0.30763406    -0.28700
C1047       C  0.87005406  0.63612019  0.31162104     0.06900
C1048       C  0.88036256  0.64346861  0.29718611    -0.27300
H1049       H  0.82731971  0.60388938  0.29613265     0.11600
H1050       H  0.82052982  0.59563298  0.26444406     0.12700
H1051       H  0.89765299  0.65589288  0.26739687     0.11800
H1052       H  0.89050647  0.64810227  0.23567918     0.11100
H1053       H  0.87261808  0.63043126  0.21335343     0.16500
H1054       H  0.82829133  0.59673256  0.23190409     0.12400
H1055       H  0.84684117  0.61952225  0.31867770     0.15200
H1056       H  0.89197601  0.65211382  0.30013688     0.15000
C1057       C  0.81990371  0.47587143  0.14567037    -0.17900
C1058       C  0.81936001  0.49498782  0.14524093    -0.20000
C1059       C  0.82634938  0.50525794  0.15981934     0.20600
C1060       C  0.83349359  0.49618457  0.17522035    -0.03000
C1061       C  0.83412300  0.47692254  0.17561460    -0.06000
C1062       C  0.82751669  0.46674128  0.16064624     0.20900
C1063       C  0.84193823  0.46788757  0.19069647     0.19000
C1064       C  0.84845260  0.47812683  0.20551398    -0.17500
C1065       C  0.84774950  0.49722739  0.20516124    -0.19700
C1066       C  0.84057361  0.50635277  0.18996486     0.20500
C1067       C  0.84091529  0.52545895  0.18899817    -0.32700
C1068       C  0.83449203  0.53454242  0.17340479     0.01200
C1069       C  0.82685524  0.52441514  0.15902995    -0.24100
C1070       C  0.82926742  0.44766032  0.16061326    -0.28700
C1071       C  0.83782315  0.43870159  0.17519452     0.06900
C1072       C  0.84369873  0.44882070  0.19039899    -0.27300
H1073       H  0.81473090  0.46823357  0.13410558     0.11600
H1074       H  0.81377173  0.50174438  0.13335852     0.12700
H1075       H  0.85441708  0.47137500  0.21721620     0.11800
H1076       H  0.85317374  0.50487088  0.21660579     0.11100
H1077       H  0.84673027  0.53323639  0.20016882     0.16500
H1078       H  0.82183294  0.53139621  0.14701225     0.12400
H1079       H  0.82463925  0.43986332  0.14890929     0.15200
H1080       H  0.85017402  0.44192006  0.20175046     0.15000
C1081       C  0.26222688  0.85495185  0.60247722    -0.17900
C1082       C  0.28014403  0.85716187  0.60847973    -0.20000
C1083       C  0.28374757  0.86246016  0.62651470     0.20600
C1084       C  0.26911092  0.86542494  0.63866583    -0.03000
C1085       C  0.25099912  0.86327940  0.63257702    -0.06000
C1086       C  0.24759103  0.85808683  0.61437941     0.20900
C1087       C  0.23632746  0.86655557  0.64461280     0.19000
C1088       C  0.23995137  0.87165042  0.66271311    -0.17500
C1089       C  0.25789803  0.87374248  0.66875887    -0.19700
C1090       C  0.27255419  0.87077716  0.65681528     0.20500
C1091       C  0.29057119  0.87332819  0.66261958    -0.32700
C1092       C  0.30524140  0.87064454  0.65052250     0.01200
C1093       C  0.30170510  0.86508832  0.63251890    -0.24100
C1094       C  0.22961515  0.85637094  0.60829543    -0.28700
C1095       C  0.21488560  0.85997264  0.62004732     0.06900
C1096       C  0.21833627  0.86491718  0.63825904    -0.27300
H1097       H  0.25981171  0.85094392  0.58845464     0.11600
H1098       H  0.29118895  0.85482148  0.59897455     0.12700
H1099       H  0.22889728  0.87416317  0.67216704     0.11800
H1100       H  0.26031298  0.87783089  0.68275882     0.11100
H1101       H  0.29315028  0.87773554  0.67650146     0.16500
H1102       H  0.31289848  0.86315097  0.62308749     0.12400
H1103       H  0.22710580  0.85252388  0.59423524     0.15200
H1104       H  0.20706508  0.86763070  0.64740514     0.15000
C1105       C  0.33656510  0.99757308  0.63152577    -0.17900
C1106       C  0.33755034  0.97848859  0.63163107    -0.20000
C1107       C  0.33706150  0.96890573  0.64817143     0.20600
C1108       C  0.33459748  0.97852715  0.66470355    -0.03000
C1109       C  0.33355587  0.99775102  0.66459275    -0.06000
C1110       C  0.33507754  0.00730909  0.64796052     0.20900
C1111       C  0.33210178  0.00742987  0.68121029     0.19000
C1112       C  0.33065180  0.99779395  0.69766760    -0.17500
C1113       C  0.33170162  0.97870822  0.69777955    -0.19700
C1114       C  0.33418610  0.96902521  0.68143255     0.20500
C1115       C  0.33714125  0.95012381  0.68158441    -0.32700
C1116       C  0.34054613  0.94067038  0.66524784     0.01200
C1117       C  0.33987258  0.94998334  0.64854956    -0.24100
C1118       C  0.33627969  0.02639900  0.64816461    -0.28700
C1119       C  0.33630880  0.03596234  0.66478958     0.06900
C1120       C  0.33332124  0.02653176  0.68117525    -0.27300
H1121       H  0.33761557  0.00474194  0.61864771     0.11600
H1122       H  0.33930052  0.97126576  0.61883125     0.12700
H1123       H  0.32938004  0.00504229  0.71051008     0.11800
H1124       H  0.33117914  0.97156464  0.71070360     0.11100
H1125       H  0.33744731  0.94288313  0.69447466     0.16500
H1126       H  0.34239840  0.94266240  0.63592555     0.12400
H1127       H  0.33837767  0.03369636  0.63547766     0.15200
H1128       H  0.33316254  0.03393077  0.69400604     0.15000
C1129       C  0.36049936  0.82348565  0.74666617    -0.17900
C1130       C  0.36095127  0.81822838  0.76504902    -0.20000
C1131       C  0.36360424  0.83130002  0.77887996     0.20600
C1132       C  0.36569289  0.84986873  0.77413228    -0.03000
C1133       C  0.36552990  0.85512470  0.75557897    -0.06000
C1134       C  0.36290207  0.84189234  0.74173627     0.20900
C1135       C  0.36807227  0.87363868  0.75091043     0.19000
C1136       C  0.37055725  0.88674903  0.76468951    -0.17500
C1137       C  0.37057244  0.88157728  0.78302465    -0.19700
C1138       C  0.36819280  0.86318679  0.78790615     0.20500
C1139       C  0.36869858  0.85785942  0.80629138    -0.32700
C1140       C  0.36725384  0.83932463  0.81111277     0.01200
C1141       C  0.36457822  0.82612526  0.79732798    -0.24100
C1142       C  0.36266413  0.84735332  0.72328510    -0.28700
C1143       C  0.36519899  0.86586126  0.71860988     0.06900
C1144       C  0.36799100  0.87881683  0.73255839    -0.27300
H1145       H  0.35841294  0.81312264  0.73629533     0.11600
H1146       H  0.35927581  0.80390575  0.76844745     0.12700
H1147       H  0.37249569  0.90103865  0.76128111     0.11800
H1148       H  0.37258566  0.89196094  0.79339476     0.11100
H1149       H  0.37105925  0.86804587  0.81679417     0.16500
H1150       H  0.36355838  0.81178620  0.80095277     0.12400
H1151       H  0.36032051  0.83730934  0.71265342     0.15200
H1152       H  0.36981268  0.89313330  0.72916238     0.15000
C1153       C  0.59140644  0.70857384  0.90116722    -0.17900
C1154       C  0.58707017  0.72718902  0.90016216    -0.20000
C1155       C  0.59877740  0.73946919  0.89130718     0.20600
C1156       C  0.61511582  0.73297379  0.88354998    -0.03000
C1157       C  0.61947150  0.71415955  0.88451954    -0.06000
C1158       C  0.60751542  0.70190880  0.89331223     0.20900
C1159       C  0.63578896  0.70763076  0.87672194     0.19000
C1160       C  0.64757361  0.71994976  0.86803085    -0.17500
C1161       C  0.64320794  0.73857105  0.86698000    -0.19700
C1162       C  0.62700182  0.74523015  0.87465169     0.20500
C1163       C  0.62227014  0.76382598  0.87321853    -0.32700
C1164       C  0.60571919  0.77027295  0.88041587     0.01200
C1165       C  0.59421808  0.75804267  0.88971383    -0.24100
C1166       C  0.61200517  0.68326827  0.89434079    -0.28700
C1167       C  0.62841039  0.67671752  0.88690131     0.06900
C1168       C  0.64016385  0.68896527  0.87799108    -0.27300
H1169       H  0.58213017  0.69937696  0.90805895     0.11600
H1170       H  0.57448454  0.73196661  0.90621531     0.12700
H1171       H  0.66017511  0.71517534  0.86201037     0.11800
H1172       H  0.65248572  0.74776278  0.86008541     0.11100
H1173       H  0.63113856  0.77312677  0.86592470     0.16500
H1174       H  0.58142229  0.76288138  0.89527726     0.12400
H1175       H  0.60300607  0.67396653  0.90147598     0.15200
H1176       H  0.65291007  0.68403935  0.87239072     0.15000
C1177       C  0.47524232  0.85429489  0.84520167    -0.17900
C1178       C  0.49423863  0.85385128  0.84482258    -0.20000
C1179       C  0.50355370  0.83717780  0.84651287     0.20600
C1180       C  0.49366773  0.82071851  0.84811878    -0.03000
C1181       C  0.47451763  0.82116500  0.84849377    -0.06000
C1182       C  0.46527985  0.83806558  0.84723999     0.20900
C1183       C  0.46464981  0.80476585  0.85068481     0.19000
C1184       C  0.47394505  0.78805823  0.85206927    -0.17500
C1185       C  0.49293957  0.78761838  0.85171269    -0.19700
C1186       C  0.50291426  0.80388480  0.84998811     0.20500
C1187       C  0.52194686  0.80370857  0.85088125    -0.32700
C1188       C  0.53179847  0.82016268  0.85016540     0.01200
C1189       C  0.52256305  0.83676567  0.84740659    -0.24100
C1190       C  0.44628077  0.83847945  0.84855101    -0.28700
C1191       C  0.43646319  0.82222537  0.85119840     0.06900
C1192       C  0.44568656  0.80540715  0.85195864    -0.27300
H1193       H  0.46835054  0.86736471  0.84419817     0.11600
H1194       H  0.50165628  0.86659563  0.84356945     0.12700
H1195       H  0.46653046  0.77535946  0.85373437     0.11800
H1196       H  0.49983528  0.77459294  0.85314416     0.11100
H1197       H  0.52902652  0.79086696  0.85299017     0.16500
H1198       H  0.53011744  0.84948951  0.84681769     0.12400
H1199       H  0.43919406  0.85148315  0.84804164     0.15200
H1200       H  0.43814509  0.79283873  0.85404792     0.15000
C1201       C  0.74652713  0.87105869  0.66474544    -0.17900
C1202       C  0.72883285  0.87299922  0.67153806    -0.20000
C1203       C  0.71394973  0.86571766  0.66197354     0.20600
C1204       C  0.71695833  0.85588172  0.64569671    -0.03000
C1205       C  0.73483504  0.85399764  0.63878569    -0.06000
C1206       C  0.74966850  0.86182254  0.64824685     0.20900
C1207       C  0.73778385  0.84475784  0.62215200     0.19000
C1208       C  0.72296374  0.83695887  0.61289787    -0.17500
C1209       C  0.70527475  0.83877870  0.61976907    -0.19700
C1210       C  0.70206019  0.84848793  0.63599300     0.20500
C1211       C  0.68420315  0.85160801  0.64226133    -0.32700
C1212       C  0.68107885  0.86228412  0.65794324     0.01200
C1213       C  0.69608228  0.86877049  0.66800753    -0.24100
C1214       C  0.76729199  0.86064374  0.64084491    -0.28700
C1215       C  0.77023667  0.85194544  0.62398129     0.06900
C1216       C  0.75542300  0.84382786  0.61486047    -0.27300
H1217       H  0.75772566  0.87708613  0.67223592     0.11600
H1218       H  0.72675235  0.88053225  0.68410913     0.12700
H1219       H  0.72501375  0.82971017  0.60015911     0.11800
H1220       H  0.69405644  0.83293588  0.61216624     0.11100
H1221       H  0.67275347  0.84652374  0.63445311     0.16500
H1222       H  0.69383940  0.87687276  0.68020301     0.12400
H1223       H  0.77862158  0.86687666  0.64797433     0.15200
H1224       H  0.75758057  0.83695016  0.60192667     0.15000
C1225       C  0.61342428  0.87971735  0.78849350    -0.17900
C1226       C  0.61589314  0.88513415  0.77035021    -0.20000
C1227       C  0.61635770  0.87207550  0.75626904     0.20600
C1228       C  0.61448458  0.85336747  0.76051665    -0.03000
C1229       C  0.61189552  0.84790826  0.77882231    -0.06000
C1230       C  0.61129866  0.86114909  0.79288065     0.20900
C1231       C  0.60960824  0.82922368  0.78299768     0.19000
C1232       C  0.61028997  0.81615769  0.76895856    -0.17500
C1233       C  0.61303247  0.82154637  0.75086877    -0.19700
C1234       C  0.61501637  0.84011228  0.74646345     0.20500
C1235       C  0.61742372  0.84564073  0.72826206    -0.32700
C1236       C  0.61913597  0.86427254  0.72389724     0.01200
C1237       C  0.61860797  0.87739419  0.73801979    -0.24100
C1238       C  0.60814078  0.85561601  0.81097648    -0.28700
C1239       C  0.60525836  0.83704754  0.81511099     0.06900
C1240       C  0.60627656  0.82394187  0.80106582    -0.27300
H1241       H  0.61299051  0.89007620  0.79907488     0.11600
H1242       H  0.61735742  0.89956460  0.76731986     0.12700
H1243       H  0.60857819  0.80174699  0.77195643     0.11800
H1244       H  0.61343526  0.81118481  0.74028834     0.11100
H1245       H  0.61792078  0.83545975  0.71750299     0.16500
H1246       H  0.62004906  0.89179895  0.73482569     0.12400
H1247       H  0.60725106  0.86580368  0.82170475     0.15200
H1248       H  0.60407419  0.80960586  0.80413785     0.15000
C1249       C  0.65467903  0.99510693  0.69688659    -0.17900
C1250       C  0.65369836  0.97601531  0.69715111    -0.20000
C1251       C  0.64866530  0.96630911  0.68142061     0.20600
C1252       C  0.64502356  0.97583432  0.66512044    -0.03000
C1253       C  0.64600032  0.99509018  0.66485769    -0.06000
C1254       C  0.65061076  0.00476951  0.68089062     0.20900
C1255       C  0.64180287  0.00466597  0.64871586     0.19000
C1256       C  0.63714199  0.99492792  0.63288721    -0.17500
C1257       C  0.63619816  0.97582186  0.63314158    -0.19700
C1258       C  0.63990941  0.96616247  0.64923079     0.20500
C1259       C  0.63814609  0.94705952  0.64985688    -0.32700
C1260       C  0.64124571  0.93760759  0.66622075     0.01200
C1261       C  0.64676255  0.94728010  0.68184468    -0.24100
C1262       C  0.65039560  0.02393975  0.68082273    -0.28700
C1263       C  0.64544571  0.03350842  0.66498835     0.06900
C1264       C  0.64167137  0.02381766  0.64886476    -0.27300
H1265       H  0.65828222  0.00232993  0.70928253     0.11600
H1266       H  0.65659166  0.96885305  0.70974779     0.12700
H1267       H  0.63390863  0.00210893  0.62038571     0.11800
H1268       H  0.63228532  0.96861696  0.62083036     0.11100
H1269       H  0.63383039  0.93963371  0.63780510     0.16500
H1270       H  0.64922425  0.94002070  0.69449070     0.12400
H1271       H  0.65335093  0.03137946  0.69327659     0.15200
H1272       H  0.63788583  0.03116329  0.63660731     0.15000
C1273       C  0.37581870  0.08710626  0.76358001    -0.17900
C1274       C  0.37568657  0.09199013  0.78203957    -0.20000
C1275       C  0.37030993  0.10961454  0.78744209     0.20600
C1276       C  0.36481473  0.12238535  0.77410084    -0.03000
C1277       C  0.36511280  0.11750984  0.75544095    -0.06000
C1278       C  0.37064203  0.09978297  0.75018570     0.20900
C1279       C  0.35994560  0.13038464  0.74206166     0.19000
C1280       C  0.35434365  0.14793394  0.74749416    -0.17500
C1281       C  0.35403491  0.15275954  0.76597610    -0.19700
C1282       C  0.35937390  0.14014057  0.77936259     0.20500
C1283       C  0.36005044  0.14519343  0.79782862    -0.32700
C1284       C  0.36642230  0.13284513  0.81108980     0.01200
C1285       C  0.37100343  0.11490326  0.80585533    -0.24100
C1286       C  0.37065998  0.09495316  0.73165846    -0.28700
C1287       C  0.36528409  0.10760551  0.71824121     0.06900
C1288       C  0.36020366  0.12539505  0.72353243    -0.27300
H1289       H  0.38005830  0.07342117  0.75976929     0.11600
H1290       H  0.37995460  0.08202047  0.79208633     0.12700
H1291       H  0.35024412  0.15796063  0.73743591     0.11800
H1292       H  0.34982640  0.16645550  0.76978570     0.11100
H1293       H  0.35654372  0.15907094  0.80173104     0.16500
H1294       H  0.37598140  0.10533412  0.81597130     0.12400
H1295       H  0.37452761  0.08118778  0.72770324     0.15200
H1296       H  0.35584212  0.13513967  0.71330010     0.15000
C1297       C  0.61260676  0.09535166  0.78319413    -0.17900
C1298       C  0.61465727  0.08938542  0.76517382    -0.20000
C1299       C  0.61688643  0.10206543  0.75099092     0.20600
C1300       C  0.61718433  0.12094237  0.75498709    -0.03000
C1301       C  0.61522757  0.12696263  0.77320528    -0.06000
C1302       C  0.61281117  0.11409929  0.78735489     0.20900
C1303       C  0.61546903  0.14584251  0.77721894     0.19000
C1304       C  0.61776773  0.15851199  0.76303174    -0.17500
C1305       C  0.61970445  0.15254574  0.74498177    -0.19700
C1306       C  0.61940278  0.13379973  0.74079285     0.20500
C1307       C  0.62145031  0.12767840  0.72271226    -0.32700
C1308       C  0.62140722  0.10886143  0.71868495     0.01200
C1309       C  0.61897058  0.09617433  0.73290904    -0.24100
C1310       C  0.61021592  0.12021138  0.80533797    -0.28700
C1311       C  0.60998127  0.13902247  0.80936924     0.06900
C1312       C  0.61296612  0.15173510  0.79527466    -0.27300
H1313       H  0.61076714  0.08529509  0.79387226     0.11600
H1314       H  0.61444236  0.07483194  0.76231979     0.12700
H1315       H  0.61795263  0.17306661  0.76588276     0.11800
H1316       H  0.62142284  0.16260594  0.73428980     0.11100
H1317       H  0.62339579  0.13751878  0.71184859     0.16500
H1318       H  0.61895681  0.08163038  0.72995114     0.12400
H1319       H  0.60781792  0.11034874  0.81609511     0.15200
H1320       H  0.61268231  0.16627353  0.79824063     0.15000
C1321       C  0.60855524  0.27427930  0.85371954    -0.17900
C1322       C  0.60304711  0.25625618  0.85056780    -0.20000
C1323       C  0.61001557  0.24191523  0.86118117     0.20600
C1324       C  0.62270628  0.24568199  0.87507230    -0.03000
C1325       C  0.62827744  0.26389800  0.87825252    -0.06000
C1326       C  0.62114013  0.27825335  0.86752180     0.20900
C1327       C  0.64086157  0.26775341  0.89223232     0.19000
C1328       C  0.64783293  0.25338090  0.90283134    -0.17500
C1329       C  0.64231543  0.23530738  0.89966198    -0.19700
C1330       C  0.62972654  0.23128466  0.88583724     0.20500
C1331       C  0.62391411  0.21319169  0.88264746    -0.32700
C1332       C  0.61112737  0.20943632  0.86888193     0.01200
C1333       C  0.60436403  0.22389379  0.85819465    -0.24100
C1334       C  0.62655627  0.29634461  0.87088834    -0.28700
C1335       C  0.63891386  0.30029991  0.88492885     0.06900
C1336       C  0.64609118  0.28592695  0.89548112    -0.27300
H1337       H  0.60292434  0.28512250  0.84539034     0.11600
H1338       H  0.59326892  0.25353550  0.83985154     0.12700
H1339       H  0.65751102  0.25612628  0.91362850     0.11800
H1340       H  0.64785191  0.22448078  0.90807067     0.11100
H1341       H  0.62913128  0.20213161  0.89096805     0.16500
H1342       H  0.59452688  0.22114683  0.84752529     0.12400
H1343       H  0.62089392  0.30737403  0.86280935     0.15200
H1344       H  0.65561712  0.28890060  0.90636646     0.15000
C1345       C  0.47733021  0.19295058  0.85494343    -0.17900
C1346       C  0.49634044  0.19333999  0.85444758    -0.20000
C1347       C  0.50617995  0.17784055  0.84888443     0.20600
C1348       C  0.49679663  0.16210497  0.84289319    -0.03000
C1349       C  0.47762248  0.16174850  0.84329604    -0.06000
C1350       C  0.46787347  0.17708589  0.84978662     0.20900
C1351       C  0.46825876  0.14576648  0.83794200     0.19000
C1352       C  0.47807943  0.13055693  0.83162732    -0.17500
C1353       C  0.49708649  0.13087548  0.83132364    -0.19700
C1354       C  0.50656776  0.14643408  0.83727396     0.20500
C1355       C  0.52560124  0.14630569  0.83849738    -0.32700
C1356       C  0.53492976  0.16156091  0.84547564     0.01200
C1357       C  0.52519482  0.17749305  0.85003332    -0.24100
C1358       C  0.44891901  0.17602163  0.85164885    -0.28700
C1359       C  0.43962137  0.15984877  0.84702748     0.06900
C1360       C  0.44930406  0.14499499  0.83968037    -0.27300
H1361       H  0.47004446  0.20489923  0.85979077     0.11600
H1362       H  0.50335846  0.20557953  0.85893772     0.12700
H1363       H  0.47107228  0.11822755  0.82737930     0.11800
H1364       H  0.50437843  0.11877878  0.82686716     0.11100
H1365       H  0.53306835  0.13403312  0.83485521     0.16500
H1366       H  0.53236091  0.18937348  0.85522510     0.12400
H1367       H  0.44147660  0.18757429  0.85719537     0.15200
H1368       H  0.44218001  0.13252457  0.83605137     0.15000
C1369       C  0.83936136  0.36773603  0.26831557    -0.17900
C1370       C  0.84210516  0.36191377  0.28622263    -0.20000
C1371       C  0.85557849  0.34894107  0.29017006     0.20600
C1372       C  0.86610391  0.34140572  0.27587092    -0.03000
C1373       C  0.86329714  0.34724024  0.25778143    -0.06000
C1374       C  0.85002949  0.36064008  0.25409503     0.20900
C1375       C  0.87401452  0.33998262  0.24346876     0.19000
C1376       C  0.88720804  0.32668750  0.24740208    -0.17500
C1377       C  0.89005497  0.32095357  0.26537605    -0.19700
C1378       C  0.87972233  0.32839214  0.27969919     0.20500
C1379       C  0.88307565  0.32342498  0.29783124    -0.32700
C1380       C  0.87300333  0.33132158  0.31216455     0.01200
C1381       C  0.85903364  0.34376245  0.30821547    -0.24100
C1382       C  0.84787062  0.36700620  0.23630166    -0.28700
C1383       C  0.85871979  0.36018181  0.22202300     0.06900
C1384       C  0.87156953  0.34643334  0.22558392    -0.27300
H1385       H  0.82905458  0.37798122  0.26561832     0.11600
H1386       H  0.83388445  0.36777497  0.29702314     0.12700
H1387       H  0.89550831  0.32091845  0.23661523     0.11800
H1388       H  0.90051787  0.31087933  0.26810822     0.11100
H1389       H  0.89383326  0.31373224  0.30081542     0.16500
H1390       H  0.85125163  0.34986401  0.31922244     0.12400
H1391       H  0.83777849  0.37748120  0.23359880     0.15200
H1392       H  0.87992321  0.34114056  0.21458966     0.15000
C1393       C  0.00226281  0.33755890  0.33831249    -0.17900
C1394       C  0.98327062  0.33739701  0.33788171    -0.20000
C1395       C  0.97338142  0.32956078  0.35224691     0.20600
C1396       C  0.98267328  0.32178030  0.36717832    -0.03000
C1397       C  0.00178981  0.32203828  0.36766262    -0.06000
C1398       C  0.01160974  0.32996879  0.35315570     0.20900
C1399       C  0.01106141  0.31442911  0.38270078     0.19000
C1400       C  0.00118724  0.30654957  0.39702937    -0.17500
C1401       C  0.98221698  0.30620318  0.39650071    -0.19700
C1402       C  0.97286788  0.31378851  0.38166781     0.20500
C1403       C  0.95387447  0.31356693  0.38111150    -0.32700
C1404       C  0.94457211  0.32137830  0.36636059     0.01200
C1405       C  0.95436219  0.32937296  0.35197656    -0.24100
C1406       C  0.03060090  0.33027582  0.35382441    -0.28700
C1407       C  0.03984487  0.32288147  0.36885709     0.06900
C1408       C  0.03004737  0.31491394  0.38319785    -0.27300
H1409       H  0.00963820  0.34369048  0.32708302     0.11600
H1410       H  0.97631499  0.34340182  0.32632281     0.12700
H1411       H  0.00813671  0.30066796  0.40865141     0.11800
H1412       H  0.97485201  0.30004870  0.40771930     0.11100
H1413       H  0.94632688  0.30743295  0.39223216     0.16500
H1414       H  0.94718550  0.33538520  0.34054531     0.12400
H1415       H  0.03817462  0.33639554  0.34270953     0.15200
H1416       H  0.03718869  0.30916139  0.39477910     0.15000
C1417       C  0.88865440  0.22099816  0.37000255    -0.17900
C1418       C  0.88287556  0.20280837  0.37131637    -0.20000
C1419       C  0.86431888  0.19865100  0.37294853     0.20600
C1420       C  0.85143139  0.21299843  0.37295762    -0.03000
C1421       C  0.85727946  0.23140013  0.37170695    -0.06000
C1422       C  0.87599059  0.23537730  0.37036192     0.20900
C1423       C  0.84444401  0.24579711  0.37204926     0.19000
C1424       C  0.82585665  0.24160694  0.37336197    -0.17500
C1425       C  0.82006421  0.22338287  0.37461888    -0.19700
C1426       C  0.83274298  0.20898893  0.37456074     0.20500
C1427       C  0.82710598  0.19070839  0.37650532    -0.32700
C1428       C  0.83990902  0.17634746  0.37703901     0.01200
C1429       C  0.85848216  0.18044734  0.37499419    -0.24100
C1430       C  0.88175811  0.25365116  0.36957472    -0.28700
C1431       C  0.86912543  0.26813158  0.37015165     0.06900
C1432       C  0.85044335  0.26408685  0.37123886    -0.27300
H1433       H  0.90307496  0.22383069  0.36889758     0.11600
H1434       H  0.89295445  0.19198644  0.37123556     0.12700
H1435       H  0.81579274  0.25243976  0.37358506     0.11800
H1436       H  0.80565167  0.22055496  0.37582187     0.11100
H1437       H  0.81276654  0.18772160  0.37819248     0.16500
H1438       H  0.86844300  0.16951664  0.37548638     0.12400
H1439       H  0.89617318  0.25659548  0.36857198     0.15200
H1440       H  0.84060971  0.27513896  0.37152733     0.15000
C1441       C  0.73115671  0.11573902  0.67000044    -0.17900
C1442       C  0.74926450  0.11713550  0.66412632    -0.20000
C1443       C  0.75377369  0.11447883  0.64569203     0.20600
C1444       C  0.73982023  0.11042504  0.63307853    -0.03000
C1445       C  0.72155209  0.10918604  0.63896688    -0.06000
C1446       C  0.71718534  0.11175397  0.65753674     0.20900
C1447       C  0.70767953  0.10525597  0.62624933     0.19000
C1448       C  0.71213040  0.10253295  0.60785076    -0.17500
C1449       C  0.73017974  0.10370021  0.60204370    -0.19700
C1450       C  0.74408223  0.10767285  0.61452775     0.20500
C1451       C  0.76212586  0.10921091  0.60866619    -0.32700
C1452       C  0.77611348  0.11364959  0.62098564     0.01200
C1453       C  0.77188745  0.11605288  0.63956606    -0.24100
C1454       C  0.69899083  0.10996771  0.66329837    -0.28700
C1455       C  0.68514551  0.10579026  0.65065904     0.06900
C1456       C  0.68962122  0.10376227  0.63214573    -0.27300
H1457       H  0.72808253  0.11776091  0.68431207     0.11600
H1458       H  0.75975057  0.12028733  0.67401871     0.12700
H1459       H  0.70164165  0.09943677  0.59794046     0.11800
H1460       H  0.73326102  0.10156329  0.58774646     0.11100
H1461       H  0.76521705  0.10732115  0.59432742     0.16500
H1462       H  0.78257374  0.11955004  0.64913024     0.12400
H1463       H  0.69566967  0.11144352  0.67762645     0.15200
H1464       H  0.67909988  0.10036810  0.62235380     0.15000
C1465       C  0.86072066  0.14229032  0.48675370    -0.17900
C1466       C  0.86100714  0.14248722  0.50584959    -0.20000
C1467       C  0.84468589  0.14258400  0.51579818     0.20600
C1468       C  0.82794586  0.14342781  0.50641861    -0.03000
C1469       C  0.82766201  0.14336123  0.48720616    -0.06000
C1470       C  0.84410830  0.14228245  0.47731654     0.20900
C1471       C  0.81085946  0.14352424  0.47792711     0.19000
C1472       C  0.79456677  0.14443831  0.48781329    -0.17500
C1473       C  0.79484407  0.14436628  0.50682890    -0.19700
C1474       C  0.81142392  0.14349351  0.51621263     0.20500
C1475       C  0.81169829  0.14188582  0.53518355    -0.32700
C1476       C  0.82823801  0.14006730  0.54455375     0.01200
C1477       C  0.84473221  0.14101891  0.53488148    -0.24100
C1478       C  0.84356207  0.14040873  0.45825691    -0.28700
C1479       C  0.82676625  0.13965794  0.44910785     0.06900
C1480       C  0.81055470  0.14189680  0.45896182    -0.27300
H1481       H  0.87347621  0.14165551  0.47938019     0.11600
H1482       H  0.87397967  0.14200748  0.51283122     0.12700
H1483       H  0.78157943  0.14465669  0.48083828     0.11800
H1484       H  0.78206645  0.14452893  0.51419500     0.11100
H1485       H  0.79894794  0.14131047  0.54259439     0.16500
H1486       H  0.85753189  0.13972252  0.54209425     0.12400
H1487       H  0.85611496  0.13884196  0.45065636     0.15200
H1488       H  0.79757901  0.14147693  0.45195199     0.15000
C1489       C  0.83592186  0.36886315  0.74000773    -0.17900
C1490       C  0.83876224  0.36322600  0.72198888    -0.20000
C1491       C  0.85225131  0.35028591  0.71784535     0.20600
C1492       C  0.86269997  0.34263760  0.73210870    -0.03000
C1493       C  0.85972373  0.34821752  0.75034520    -0.06000
C1494       C  0.84645593  0.36158914  0.75422089     0.20900
C1495       C  0.87028480  0.34073237  0.76462171     0.19000
C1496       C  0.88358016  0.32757051  0.76049020    -0.17500
C1497       C  0.88665051  0.32217185  0.74240395    -0.19700
C1498       C  0.87639810  0.32974228  0.72811634     0.20500
C1499       C  0.87988121  0.32496844  0.70988432    -0.32700
C1500       C  0.86981489  0.33284826  0.69553666     0.01200
C1501       C  0.85577359  0.34522536  0.69967013    -0.24100
C1502       C  0.84420726  0.36776923  0.77217588    -0.28700
C1503       C  0.85490068  0.36070347  0.78645317     0.06900
C1504       C  0.86765078  0.34687108  0.78266423    -0.27300
H1505       H  0.82561495  0.37909450  0.74280290     0.11600
H1506       H  0.83059395  0.36921557  0.71125033     0.12700
H1507       H  0.89181006  0.32165338  0.77122015     0.11800
H1508       H  0.89719644  0.31220459  0.73956878     0.11100
H1509       H  0.89068759  0.31533774  0.70684030     0.16500
H1510       H  0.84799600  0.35136753  0.68871829     0.12400
H1511       H  0.83418611  0.37828574  0.77502506     0.15200
H1512       H  0.87590784  0.34137518  0.79360305     0.15000
C1513       C  0.88264016  0.20354494  0.63239278    -0.17900
C1514       C  0.88772445  0.22165508  0.63607165    -0.20000
C1515       C  0.87528964  0.23605784  0.63364569     0.20600
C1516       C  0.85753615  0.23216509  0.62753084    -0.03000
C1517       C  0.85242680  0.21388954  0.62375266    -0.06000
C1518       C  0.86503107  0.19949423  0.62620760     0.20900
C1519       C  0.83473300  0.21005772  0.61742638     0.19000
C1520       C  0.82229980  0.22443254  0.61500188    -0.17500
C1521       C  0.82732238  0.24249561  0.61884310    -0.19700
C1522       C  0.84490777  0.24653833  0.62506309     0.20500
C1523       C  0.85012950  0.26470912  0.62862681    -0.32700
C1524       C  0.86788640  0.26875074  0.63442844     0.01200
C1525       C  0.88034281  0.25429299  0.63703182    -0.24100
C1526       C  0.85981707  0.18135689  0.62236218    -0.28700
C1527       C  0.84217179  0.17747002  0.61605500     0.06900
C1528       C  0.82976241  0.19193763  0.61358586    -0.27300
H1529       H  0.89250789  0.19270695  0.63434306     0.11600
H1530       H  0.90142351  0.22440585  0.64076596     0.12700
H1531       H  0.80865789  0.22170257  0.61013178     0.11800
H1532       H  0.81746228  0.25333191  0.61684636     0.11100
H1533       H  0.84047011  0.27572881  0.62658610     0.16500
H1534       H  0.89406686  0.25724153  0.64155589     0.12400
H1535       H  0.86951482  0.17031988  0.62410887     0.15200
H1536       H  0.81618075  0.18911488  0.60857253     0.15000
C1537       C  0.99863357  0.29509137  0.62781038    -0.17900
C1538       C  0.97969930  0.29513740  0.62825477    -0.20000
C1539       C  0.97031364  0.30989084  0.63605902     0.20600
C1540       C  0.97998168  0.32474284  0.64360168    -0.03000
C1541       C  0.99911241  0.32469257  0.64316011    -0.06000
C1542       C  0.00841321  0.30979983  0.63516964     0.20900
C1543       C  0.00891678  0.33952991  0.65060214     0.19000
C1544       C  0.99944717  0.35421097  0.65855590    -0.17500
C1545       C  0.98040356  0.35426662  0.65898270    -0.19700
C1546       C  0.97054051  0.33963824  0.65146509     0.20500
C1547       C  0.95143621  0.33960701  0.65155097    -0.32700
C1548       C  0.94185691  0.32480955  0.64393118     0.01200
C1549       C  0.95139153  0.31002573  0.63632818    -0.24100
C1550       C  0.02735727  0.30984979  0.63458836    -0.28700
C1551       C  0.03722816  0.32457352  0.64183679     0.06900
C1552       C  0.02799023  0.33938996  0.64987515    -0.27300
H1553       H  0.00563258  0.28357649  0.62165980     0.11600
H1554       H  0.97238643  0.28365445  0.62243360     0.12700
H1555       H  0.00676550  0.36567982  0.66437891     0.11800
H1556       H  0.97339362  0.36577717  0.66512237     0.11100
H1557       H  0.94406828  0.35100676  0.65748878     0.16500
H1558       H  0.94405817  0.29858043  0.63043028     0.12400
H1559       H  0.03443178  0.29838607  0.62840394     0.15200
H1560       H  0.03561373  0.35075073  0.65552957     0.15000
C1561       C  0.26133338  0.12493143  0.66999821    -0.17900
C1562       C  0.24278468  0.12610630  0.66578935    -0.20000
C1563       C  0.23625198  0.11985506  0.64890373     0.20600
C1564       C  0.24864724  0.11263640  0.63602572    -0.03000
C1565       C  0.26738858  0.11165267  0.64018566    -0.06000
C1566       C  0.27372241  0.11763160  0.65734141     0.20900
C1567       C  0.27972997  0.10441684  0.62728027     0.19000
C1568       C  0.27326292  0.09835713  0.61031833    -0.17500
C1569       C  0.25471984  0.09928820  0.60622045    -0.19700
C1570       C  0.24232720  0.10632909  0.61899599     0.20500
C1571       C  0.22375293  0.10732884  0.61492397    -0.32700
C1572       C  0.21128536  0.11467815  0.62753856     0.01200
C1573       C  0.21761184  0.12083024  0.64458322    -0.24100
C1574       C  0.29223751  0.11577334  0.66169469    -0.28700
C1575       C  0.30453680  0.10816569  0.64905825     0.06900
C1576       C  0.29823280  0.10289220  0.63173468    -0.27300
H1577       H  0.26597740  0.12963847  0.68321824     0.11600
H1578       H  0.23352350  0.13178268  0.67580857     0.12700
H1579       H  0.28253244  0.09274361  0.60026963     0.11800
H1580       H  0.25005876  0.09445488  0.59304797     0.11100
H1581       H  0.21904045  0.10268929  0.60169176     0.16500
H1582       H  0.20813911  0.12676310  0.65425797     0.12400
H1583       H  0.29698908  0.11977566  0.67511506     0.15200
H1584       H  0.30757486  0.09680846  0.62201560     0.15000
C1585       C  0.15735691  0.24424489  0.62767905    -0.17900
C1586       C  0.16336491  0.22610578  0.62618102    -0.20000
C1587       C  0.15092737  0.21154252  0.62697396     0.20600
C1588       C  0.13225146  0.21529783  0.62927847    -0.03000
C1589       C  0.12618217  0.23359194  0.63065726    -0.06000
C1590       C  0.13879280  0.24815727  0.62989041     0.20900
C1591       C  0.10747594  0.23728673  0.63271244     0.19000
C1592       C  0.09501315  0.22276738  0.63338426    -0.17500
C1593       C  0.10102241  0.20466907  0.63205763    -0.19700
C1594       C  0.11959072  0.20078690  0.63001431     0.20500
C1595       C  0.12564546  0.18266050  0.62834762    -0.32700
C1596       C  0.14416966  0.17880139  0.62570532     0.01200
C1597       C  0.15676760  0.19331692  0.62518753    -0.24100
C1598       C  0.13259254  0.26633290  0.63129252    -0.28700
C1599       C  0.11394240  0.27005834  0.63335233     0.06900
C1600       C  0.10151365  0.25543202  0.63403570    -0.27300
H1601       H  0.16723242  0.25522205  0.62703059     0.11600
H1602       H  0.17775275  0.22346804  0.62436194     0.12700
H1603       H  0.08059176  0.22541260  0.63492051     0.11800
H1604       H  0.09112711  0.19370180  0.63255514     0.11100
H1605       H  0.11584865  0.17158260  0.62852559     0.16500
H1606       H  0.17106730  0.19046157  0.62297156     0.12400
H1607       H  0.14223620  0.27753303  0.63078304     0.15200
H1608       H  0.08710358  0.25815497  0.63563158     0.15000
C1609       C  0.10505183  0.20724517  0.37315825    -0.17900
C1610       C  0.09899517  0.22527510  0.37118947    -0.20000
C1611       C  0.11035628  0.23998616  0.37585703     0.20600
C1612       C  0.12803521  0.23655056  0.38244655    -0.03000
C1613       C  0.13409845  0.21834834  0.38455783    -0.06000
C1614       C  0.12253564  0.20363061  0.37990187     0.20900
C1615       C  0.15163929  0.21488801  0.39151330     0.19000
C1616       C  0.16304011  0.22961444  0.39604491    -0.17500
C1617       C  0.15709668  0.24765971  0.39377461    -0.19700
C1618       C  0.13960329  0.25128697  0.38706094     0.20500
C1619       C  0.13342596  0.26936187  0.38500230    -0.32700
C1620       C  0.11573337  0.27282978  0.37869758     0.01200
C1621       C  0.10430603  0.25806979  0.37413076    -0.24100
C1622       C  0.12854776  0.18557176  0.38233935    -0.28700
C1623       C  0.14586719  0.18204079  0.38960607     0.06900
C1624       C  0.15737856  0.19676958  0.39404335    -0.27300
H1625       H  0.09600213  0.19611913  0.36953724     0.11600
H1626       H  0.08539101  0.22771541  0.36606832     0.12700
H1627       H  0.17655295  0.22717400  0.40140151     0.11800
H1628       H  0.16614260  0.25878264  0.39739630     0.11100
H1629       H  0.14227023  0.28069434  0.38851202     0.16500
H1630       H  0.09068445  0.26065631  0.36909944     0.12400
H1631       H  0.11957837  0.17427863  0.37901355     0.15200
H1632       H  0.17075162  0.19413616  0.39968080     0.15000
C1633       C  0.12763127  0.14467380  0.51622654    -0.17900
C1634       C  0.12761599  0.14353528  0.49720088    -0.20000
C1635       C  0.14404470  0.14210557  0.48757370     0.20600
C1636       C  0.16068720  0.14215733  0.49716612    -0.03000
C1637       C  0.16070271  0.14329373  0.51634446    -0.06000
C1638       C  0.14407440  0.14434916  0.52591297     0.20900
C1639       C  0.17731938  0.14277486  0.52595731     0.19000
C1640       C  0.19376621  0.14159575  0.51632627    -0.17500
C1641       C  0.19375398  0.14052657  0.49730133    -0.19700
C1642       C  0.17729424  0.14063099  0.48763400     0.20500
C1643       C  0.17713628  0.13893422  0.46862470    -0.32700
C1644       C  0.16059872  0.13862795  0.45903099     0.01200
C1645       C  0.14411392  0.14033144  0.46855340    -0.24100
C1646       C  0.14414628  0.14422091  0.54500526    -0.28700
C1647       C  0.16059971  0.14269585  0.55460273     0.06900
C1648       C  0.17715611  0.14261084  0.54503894    -0.27300
H1649       H  0.11476096  0.14546784  0.52338586     0.11600
H1650       H  0.11473750  0.14354326  0.49002620     0.12700
H1651       H  0.20662547  0.14117627  0.52352430     0.11800
H1652       H  0.20660756  0.13937414  0.49016052     0.11100
H1653       H  0.18988842  0.13755456  0.46132624     0.16500
H1654       H  0.13133605  0.14006642  0.46118652     0.12400
H1655       H  0.13134798  0.14428549  0.55235263     0.15200
H1656       H  0.18988300  0.14148082  0.55241492     0.15000
C1657       C  0.25444005  0.09665261  0.39688913    -0.17900
C1658       C  0.27282225  0.09581644  0.39215491    -0.20000
C1659       C  0.27922796  0.10500608  0.37666060     0.20600
C1660       C  0.26695131  0.11488828  0.36563021    -0.03000
C1661       C  0.24835674  0.11568053  0.37037850    -0.06000
C1662       C  0.24216312  0.10665041  0.38617590     0.20900
C1663       C  0.23603327  0.12568942  0.35948417     0.19000
C1664       C  0.24241932  0.13452261  0.34374899    -0.17500
C1665       C  0.26085160  0.13364033  0.33897356    -0.19700
C1666       C  0.27325420  0.12400511  0.34990746     0.20500
C1667       C  0.29179710  0.12316212  0.34532627    -0.32700
C1668       C  0.30407504  0.11327374  0.35625193     0.01200
C1669       C  0.29766848  0.10430949  0.37192638    -0.24100
C1670       C  0.22387734  0.10807291  0.39123822    -0.28700
C1671       C  0.21158744  0.11843594  0.38080476     0.06900
C1672       C  0.21766297  0.12697324  0.36474757    -0.27300
H1673       H  0.24984706  0.08959657  0.40902771     0.11600
H1674       H  0.28205608  0.08806302  0.40068125     0.12700
H1675       H  0.23317451  0.14222091  0.33518950     0.11800
H1676       H  0.26543131  0.14060779  0.32678009     0.11100
H1677       H  0.29657383  0.12977161  0.33300185     0.16500
H1678       H  0.30697755  0.09638991  0.38023249     0.12400
H1679       H  0.21929199  0.10142852  0.40362129     0.15200
H1680       H  0.20827476  0.13508136  0.35672444     0.15000
C1681       C  0.25947903  0.87059715  0.32283672    -0.17900
C1682       C  0.24133251  0.86844459  0.32825018    -0.20000
C1683       C  0.23668298  0.86817928  0.34681670     0.20600
C1684       C  0.25053907  0.87001640  0.36004498    -0.03000
C1685       C  0.26886990  0.87209847  0.35458326    -0.06000
C1686       C  0.27333620  0.87245955  0.33588467     0.20900
C1687       C  0.28269255  0.87393790  0.36783464     0.19000
C1688       C  0.27806629  0.87368279  0.38639843    -0.17500
C1689       C  0.25993268  0.87164018  0.39180226    -0.19700
C1690       C  0.24609694  0.86979625  0.37874236     0.20500
C1691       C  0.22791812  0.86765796  0.38408817    -0.32700
C1692       C  0.21399563  0.86568907  0.37104681     0.01200
C1693       C  0.21847411  0.86605004  0.35239888    -0.24100
C1694       C  0.29153442  0.87489317  0.33056494    -0.28700
C1695       C  0.30538347  0.87689431  0.34368232     0.06900
C1696       C  0.30085033  0.87624032  0.36230296    -0.27300
H1697       H  0.26267312  0.87084041  0.30841586     0.11600
H1698       H  0.23092032  0.86702902  0.31789680     0.12700
H1699       H  0.28847599  0.87511466  0.39675319     0.11800
H1700       H  0.25672677  0.87149747  0.40622425     0.11100
H1701       H  0.22462367  0.86743043  0.39849813     0.16500
H1702       H  0.20784968  0.86450469  0.34227372     0.12400
H1703       H  0.29488200  0.87549773  0.31618152     0.15200
H1704       H  0.31139085  0.87795887  0.37249125     0.15000
C1705       C  0.32607950  0.00423457  0.35420960    -0.17900
C1706       C  0.32661316  0.98513501  0.35375181    -0.20000
C1707       C  0.33411601  0.97597998  0.33869571     0.20600
C1708       C  0.34046660  0.98611796  0.32361189    -0.03000
C1709       C  0.34000300  0.00537279  0.32410538    -0.06000
C1710       C  0.33309375  0.01443596  0.33964285     0.20900
C1711       C  0.34721659  0.01553308  0.30943192     0.19000
C1712       C  0.35395686  0.00637749  0.29401626    -0.17500
C1713       C  0.35432672  0.98726050  0.29348468    -0.19700
C1714       C  0.34803053  0.97704776  0.30839183     0.20500
C1715       C  0.34989159  0.95798521  0.30869594    -0.32700
C1716       C  0.34447832  0.94793210  0.32409086     0.01200
C1717       C  0.33608566  0.95692467  0.33879038    -0.24100
C1718       C  0.33409976  0.03350161  0.34071971    -0.28700
C1719       C  0.34228585  0.04355914  0.32665986     0.06900
C1720       C  0.34830735  0.03460824  0.31080780    -0.27300
H1721       H  0.32065565  0.01102841  0.36618077     0.11600
H1722       H  0.32158425  0.97753327  0.36537676     0.12700
H1723       H  0.35939160  0.01399393  0.28258456     0.11800
H1724       H  0.36003212  0.98047224  0.28164262     0.11100
H1725       H  0.35619319  0.95105280  0.29723465     0.16500
H1726       H  0.33175578  0.94918311  0.35061665     0.12400
H1727       H  0.32934859  0.04041875  0.35291906     0.15200
H1728       H  0.35446133  0.04240635  0.29985939     0.15000
C1729       C  0.38733029  0.82349014  0.23321430    -0.17900
C1730       C  0.38591096  0.83009887  0.25112922    -0.20000
C1731       C  0.37661409  0.84648605  0.25483218     0.20600
C1732       C  0.36856011  0.85619684  0.24025720    -0.03000
C1733       C  0.36972139  0.84936694  0.22222500    -0.06000
C1734       C  0.37933031  0.83304287  0.21866118     0.20900
C1735       C  0.36148722  0.85903642  0.20774029     0.19000
C1736       C  0.35218767  0.87540062  0.21139486    -0.17500
C1737       C  0.35126660  0.88228832  0.22917275    -0.19700
C1738       C  0.35943668  0.87281918  0.24365609     0.20500
C1739       C  0.35856440  0.87969995  0.26147702    -0.32700
C1740       C  0.36626325  0.87004517  0.27618181     0.01200
C1741       C  0.37522359  0.85336185  0.27278270    -0.24100
C1742       C  0.38110547  0.82681573  0.20057916    -0.28700
C1743       C  0.37324704  0.83661330  0.18602552     0.06900
C1744       C  0.36309706  0.85246798  0.18979840    -0.27300
H1745       H  0.39475816  0.81091922  0.23073304     0.11600
H1746       H  0.39221266  0.82245133  0.26207895     0.12700
H1747       H  0.34581385  0.88300996  0.20045579     0.11800
H1748       H  0.34415060  0.89505170  0.23159742     0.11100
H1749       H  0.35151983  0.89250573  0.26395351     0.16500
H1750       H  0.38123066  0.84588242  0.28401750     0.12400
H1751       H  0.38890928  0.81453245  0.19779506     0.15200
H1752       H  0.35707272  0.86012326  0.17868153     0.15000
C1753       C  0.65527851  0.72185437  0.10855817    -0.17900
C1754       C  0.65058724  0.74028930  0.11092029    -0.20000
C1755       C  0.63559673  0.74519307  0.12173858     0.20600
C1756       C  0.62540685  0.73132219  0.13045310    -0.03000
C1757       C  0.63017180  0.71272555  0.12811636    -0.06000
C1758       C  0.64509253  0.70799102  0.11700685     0.20900
C1759       C  0.61976722  0.69887114  0.13659277     0.19000
C1760       C  0.60490904  0.70376666  0.14756512    -0.17500
C1761       C  0.60016735  0.72216304  0.14984627    -0.19700
C1762       C  0.61021093  0.73598850  0.14121182     0.20500
C1763       C  0.60504351  0.75435925  0.14284086    -0.32700
C1764       C  0.61483783  0.76825527  0.13393122     0.01200
C1765       C  0.63033941  0.76363711  0.12366931    -0.24100
C1766       C  0.64932248  0.68947175  0.11422643    -0.28700
C1767       C  0.63875855  0.67555388  0.12226827     0.06900
C1768       C  0.62413795  0.68037358  0.13362930    -0.27300
H1769       H  0.66678234  0.71842778  0.09996598     0.11600
H1770       H  0.65856016  0.75069876  0.10410877     0.12700
H1771       H  0.59680268  0.69334794  0.15420362     0.11800
H1772       H  0.58848434  0.72556912  0.15820244     0.11100
H1773       H  0.59314877  0.75783063  0.15088279     0.16500
H1774       H  0.63790056  0.77428070  0.11672986     0.12400
H1775       H  0.66060070  0.68589494  0.10538266     0.15200
H1776       H  0.61592639  0.66975020  0.13981531     0.15000
C1777       C  0.48045949  0.85709923  0.14446742    -0.17900
C1778       C  0.49950363  0.85679243  0.14500255    -0.20000
C1779       C  0.50910686  0.84108684  0.13955284     0.20600
C1780       C  0.49941711  0.82561759  0.13332549    -0.03000
C1781       C  0.48026660  0.82594791  0.13273084    -0.06000
C1782       C  0.47070660  0.84171863  0.13844092     0.20900
C1783       C  0.47069490  0.81038778  0.12660108     0.19000
C1784       C  0.48023176  0.79475191  0.12097283    -0.17500
C1785       C  0.49917581  0.79440374  0.12161848    -0.19700
C1786       C  0.50884507  0.80971220  0.12783223     0.20500
C1787       C  0.52779396  0.80930143  0.12870809    -0.32700
C1788       C  0.53756855  0.82456221  0.13494252     0.01200
C1789       C  0.52819213  0.84047750  0.14030027    -0.24100
C1790       C  0.45159172  0.84168653  0.13821954    -0.28700
C1791       C  0.44206375  0.82604659  0.13240889     0.06900
C1792       C  0.45172458  0.81058232  0.12643145    -0.27300
H1793       H  0.47335764  0.86932721  0.14887007     0.11600
H1794       H  0.50671522  0.86879803  0.14978719     0.12700
H1795       H  0.47302443  0.78272487  0.11621271     0.11800
H1796       H  0.50626935  0.78212210  0.11733021     0.11100
H1797       H  0.53495018  0.79700484  0.12453823     0.16500
H1798       H  0.53571132  0.85229642  0.14509746     0.12400
H1799       H  0.44416400  0.85366909  0.14277694     0.15200
H1800       H  0.44445431  0.79852683  0.12181344     0.15000
C1801       C  0.74206432  0.11892513  0.33418896    -0.17900
C1802       C  0.72376458  0.11867703  0.32894279    -0.20000
C1803       C  0.70994148  0.11704395  0.34204879     0.20600
C1804       C  0.71455835  0.11587687  0.36066006    -0.03000
C1805       C  0.73306579  0.11612473  0.36596222    -0.06000
C1806       C  0.74689857  0.11756864  0.35264883     0.20900
C1807       C  0.73771450  0.11484697  0.38455637     0.19000
C1808       C  0.72386105  0.11341586  0.39768078    -0.17500
C1809       C  0.70554439  0.11306111  0.39242126    -0.19700
C1810       C  0.70071751  0.11418948  0.37393533     0.20500
C1811       C  0.68237769  0.11317858  0.36843731    -0.32700
C1812       C  0.67775969  0.11373524  0.34981574     0.01200
C1813       C  0.69163171  0.11606647  0.33678859    -0.24100
C1814       C  0.76528728  0.11776935  0.35802572    -0.28700
C1815       C  0.77003692  0.11667602  0.37657178     0.06900
C1816       C  0.75611370  0.11513556  0.38971803    -0.27300
H1817       H  0.75245261  0.12011397  0.32377957     0.11600
H1818       H  0.72042727  0.11959704  0.31458486     0.12700
H1819       H  0.72719874  0.11247754  0.41203589     0.11800
H1820       H  0.69515409  0.11177235  0.40281845     0.11100
H1821       H  0.67180622  0.11127833  0.37856230     0.16500
H1822       H  0.68823182  0.11650438  0.32241187     0.12400
H1823       H  0.77586631  0.11911881  0.34782158     0.15200
H1824       H  0.75958534  0.11437443  0.40405898     0.15000
C1825       C  0.70782784  0.84686015  0.38114125    -0.17900
C1826       C  0.72576807  0.84382698  0.38677791    -0.20000
C1827       C  0.74043113  0.85016359  0.37626753     0.20600
C1828       C  0.73700513  0.85942042  0.35977429    -0.03000
C1829       C  0.71887532  0.86262940  0.35416411    -0.06000
C1830       C  0.70420332  0.85640745  0.36495723     0.20900
C1831       C  0.71544755  0.87238790  0.33796360     0.19000
C1832       C  0.73011466  0.87837646  0.32724801    -0.17500
C1833       C  0.74805787  0.87504028  0.33271044    -0.19700
C1834       C  0.75167351  0.86574425  0.34904217     0.20500
C1835       C  0.76965989  0.86287981  0.35494752    -0.32700
C1836       C  0.77315707  0.85396370  0.37155858     0.01200
C1837       C  0.75843775  0.84757604  0.38207251    -0.24100
C1838       C  0.68620818  0.86026848  0.35964052    -0.28700
C1839       C  0.68272664  0.87063571  0.34389463     0.06900
C1840       C  0.69743984  0.87637532  0.33299014    -0.27300
H1841       H  0.69677291  0.84196596  0.38959563     0.11600
H1842       H  0.72817332  0.83663098  0.39945318     0.12700
H1843       H  0.72770969  0.88582342  0.31471834     0.11800
H1844       H  0.75911432  0.87994677  0.32426798     0.11100
H1845       H  0.78090455  0.86784644  0.34677957     0.16500
H1846       H  0.76098674  0.84061415  0.39485734     0.12400
H1847       H  0.67496644  0.85581790  0.36810581     0.15200
H1848       H  0.69488305  0.88424993  0.32074299     0.15000
C1849       C  0.64106624  0.86089159  0.21637743    -0.17900
C1850       C  0.64428336  0.86652114  0.23430871    -0.20000
C1851       C  0.63206543  0.86192193  0.24826576     0.20600
C1852       C  0.61657537  0.85131349  0.24423803    -0.03000
C1853       C  0.61330298  0.84566153  0.22610155    -0.06000
C1854       C  0.62557011  0.85057398  0.21209592     0.20900
C1855       C  0.59766784  0.83531735  0.22195330     0.19000
C1856       C  0.58553017  0.83058418  0.23597326    -0.17500
C1857       C  0.58878395  0.83617973  0.25396413    -0.19700
C1858       C  0.60423495  0.84661141  0.25826013     0.20500
C1859       C  0.60741023  0.85275575  0.27620225    -0.32700
C1860       C  0.62258536  0.86379507  0.28010425     0.01200
C1861       C  0.63491497  0.86809552  0.26610373    -0.24100
C1862       C  0.62204769  0.84526811  0.19403252    -0.28700
C1863       C  0.60641454  0.83511666  0.18976535     0.06900
C1864       C  0.59435669  0.83007453  0.20383467    -0.27300
H1865       H  0.65063216  0.86474544  0.20582245     0.11600
H1866       H  0.65626435  0.87463571  0.23723612     0.12700
H1867       H  0.57344568  0.82264501  0.23300363     0.11800
H1868       H  0.57913712  0.83246648  0.26449399     0.11100
H1869       H  0.59780318  0.84951870  0.28693729     0.16500
H1870       H  0.64668591  0.87652323  0.26906725     0.12400
H1871       H  0.63138258  0.84917914  0.18328013     0.15200
H1872       H  0.58225475  0.82222725  0.20066190     0.15000
C1873       C  0.62637871  0.00320367  0.29842650    -0.17900
C1874       C  0.62676897  0.98408682  0.29830631    -0.20000
C1875       C  0.63159221  0.97439950  0.31407910     0.20600
C1876       C  0.63652664  0.98404844  0.33001124    -0.03000
C1877       C  0.63614796  0.00336107  0.33012859    -0.06000
C1878       C  0.63081235  0.01293440  0.31431873     0.20900
C1879       C  0.64070673  0.01305972  0.34615706     0.19000
C1880       C  0.64600941  0.00334888  0.36177706    -0.17500
C1881       C  0.64636885  0.98418920  0.36166491    -0.19700
C1882       C  0.64144334  0.97440860  0.34592934     0.20500
C1883       C  0.64098794  0.95518795  0.34592127    -0.32700
C1884       C  0.63560940  0.94552993  0.33021819     0.01200
C1885       C  0.63120070  0.95523861  0.31428738    -0.24100
C1886       C  0.62962781  0.03205021  0.31476225    -0.28700
C1887       C  0.63368243  0.04179481  0.33078971     0.06900
C1888       C  0.63950927  0.03225136  0.34636913    -0.27300
H1889       H  0.62235319  0.01037652  0.28615517     0.11600
H1890       H  0.62303816  0.97686762  0.28594163     0.12700
H1891       H  0.64963388  0.01056750  0.37416949     0.11800
H1892       H  0.65026494  0.97701290  0.37397492     0.11100
H1893       H  0.64449076  0.94776979  0.35821589     0.16500
H1894       H  0.62715207  0.94788154  0.30209394     0.12400
H1895       H  0.62526697  0.03933744  0.30266271     0.15200
H1896       H  0.64273066  0.03971258  0.35874007     0.15000
C1897       C  0.60906265  0.28493712  0.14846276    -0.17900
C1898       C  0.60343952  0.26678503  0.15088403    -0.20000
C1899       C  0.61153660  0.25252942  0.14087226     0.20600
C1900       C  0.62561151  0.25658183  0.12846653    -0.03000
C1901       C  0.63123929  0.27493762  0.12596275    -0.06000
C1902       C  0.62286179  0.28920583  0.13594595     0.20900
C1903       C  0.64504512  0.27901963  0.11326837     0.19000
C1904       C  0.65330394  0.26475790  0.10342090    -0.17500
C1905       C  0.64778813  0.24659733  0.10595475    -0.19700
C1906       C  0.63387866  0.24233994  0.11835735     0.20500
C1907       C  0.62790462  0.22416117  0.12061012    -0.32700
C1908       C  0.61360143  0.22004871  0.13267853     0.01200
C1909       C  0.60561187  0.23434857  0.14285155    -0.24100
C1910       C  0.62820482  0.30747714  0.13300280    -0.28700
C1911       C  0.64168851  0.31166324  0.12005605     0.06900
C1912       C  0.65015162  0.29729924  0.11040421    -0.27300
H1913       H  0.60247813  0.29566731  0.15626242     0.11600
H1914       H  0.59263469  0.26390969  0.16050660     0.12700
H1915       H  0.66395147  0.26766409  0.09363334     0.11800
H1916       H  0.65430216  0.23588441  0.09807237     0.11100
H1917       H  0.63408456  0.21328913  0.11266137     0.16500
H1918       H  0.59461012  0.23134945  0.15222118     0.12400
H1919       H  0.62158450  0.31844053  0.14045469     0.15200
H1920       H  0.66059690  0.30035937  0.10043541     0.15000
C1921       C  0.63838782  0.11358160  0.23298992    -0.17900
C1922       C  0.63519683  0.11919628  0.21501649    -0.20000
C1923       C  0.62125433  0.13170644  0.21106654     0.20600
C1924       C  0.61044521  0.13862478  0.22546653    -0.03000
C1925       C  0.61374812  0.13304869  0.24365005    -0.06000
C1926       C  0.62773292  0.12040391  0.24738356     0.20900
C1927       C  0.60297658  0.14002248  0.25805182     0.19000
C1928       C  0.58896910  0.15245002  0.25410076    -0.17500
C1929       C  0.58563034  0.15788123  0.23610364    -0.19700
C1930       C  0.59629826  0.15107236  0.22170922     0.20500
C1931       C  0.59307051  0.15653381  0.20364510    -0.32700
C1932       C  0.60386714  0.14988826  0.18916903     0.01200
C1933       C  0.61793614  0.13741856  0.19301438    -0.24100
C1934       C  0.63066335  0.11460189  0.26539276    -0.28700
C1935       C  0.61988413  0.12131262  0.27983238     0.06900
C1936       C  0.60621482  0.13423436  0.27607589    -0.27300
H1937       H  0.64918580  0.10384949  0.23562831     0.11600
H1938       H  0.64362529  0.11370719  0.20418553     0.12700
H1939       H  0.58052108  0.15791233  0.26492969     0.11800
H1940       H  0.57469200  0.16744984  0.23344266     0.11100
H1941       H  0.58214163  0.16609506  0.20087259     0.16500
H1942       H  0.62623815  0.13212719  0.18198130     0.12400
H1943       H  0.64126035  0.10466734  0.26814744     0.15200
H1944       H  0.59778521  0.13938055  0.28708050     0.15000
C1945       C  0.38625177  0.15073284  0.25540992    -0.17900
C1946       C  0.38877634  0.15579279  0.23722621    -0.20000
C1947       C  0.37852633  0.14752960  0.22333593     0.20600
C1948       C  0.36560128  0.13401752  0.22772854    -0.03000
C1949       C  0.36301165  0.12894155  0.24612162    -0.06000
C1950       C  0.37341600  0.13734383  0.26001507     0.20900
C1951       C  0.35011236  0.11542191  0.25059111     0.19000
C1952       C  0.33995689  0.10706121  0.23665204    -0.17500
C1953       C  0.34256077  0.11206909  0.21840030    -0.19700
C1954       C  0.35533175  0.12556248  0.21376294     0.20500
C1955       C  0.35807599  0.13074955  0.19546503    -0.32700
C1956       C  0.37094406  0.14429153  0.19106956     0.01200
C1957       C  0.38106456  0.15255956  0.20512706    -0.24100
C1958       C  0.37095403  0.13210630  0.27824506    -0.28700
C1959       C  0.35822758  0.11857215  0.28278999     0.06900
C1960       C  0.34775304  0.11038213  0.26889367    -0.27300
H1961       H  0.39436720  0.15728532  0.26587774     0.11600
H1962       H  0.39878597  0.16617500  0.23401773     0.12700
H1963       H  0.33002450  0.09660451  0.23986290     0.11800
H1964       H  0.33457627  0.10538908  0.20791123     0.11100
H1965       H  0.35030269  0.12424255  0.18470384     0.16500
H1966       H  0.39107263  0.16294961  0.20190008     0.12400
H1967       H  0.37909845  0.13839782  0.28886030     0.15200
H1968       H  0.33794480  0.09985231  0.27227902     0.15000
C1969       C  0.49557819  0.19451749  0.13051166    -0.17900
C1970       C  0.47662855  0.19382179  0.13103467    -0.20000
C1971       C  0.46770869  0.17735735  0.13502178     0.20600
C1972       C  0.47791435  0.16142710  0.13865489    -0.03000
C1973       C  0.49706132  0.16213893  0.13816174    -0.06000
C1974       C  0.50588050  0.17877091  0.13401569     0.20900
C1975       C  0.50736070  0.14625449  0.14178839     0.19000
C1976       C  0.49839002  0.12980706  0.14588171    -0.17500
C1977       C  0.47936205  0.12909130  0.14633116    -0.19700
C1978       C  0.46899565  0.14481464  0.14271204     0.20500
C1979       C  0.44989446  0.14425476  0.14296435    -0.32700
C1980       C  0.43971953  0.16010063  0.13915265     0.01200
C1981       C  0.44873868  0.17657464  0.13531091    -0.24100
C1982       C  0.52485897  0.17942698  0.13349282    -0.28700
C1983       C  0.53521726  0.16373637  0.13717585     0.06900
C1984       C  0.52642341  0.14715616  0.14128839    -0.27300
H1985       H  0.50218236  0.20738202  0.12735413     0.11600
H1986       H  0.46893886  0.20615695  0.12825193     0.12700
H1987       H  0.50608884  0.11749214  0.14871417     0.11800
H1988       H  0.47275296  0.11623017  0.14948023     0.11100
H1989       H  0.44297355  0.13151661  0.14596227     0.16500
H1990       H  0.44096869  0.18885235  0.13244257     0.12400
H1991       H  0.53157981  0.19223970  0.13032624     0.15200
H1992       H  0.53439024  0.13500771  0.14412399     0.15000
C1993       C  0.31485974  0.25066082  0.10108842    -0.17900
C1994       C  0.32149808  0.23307520  0.10469955    -0.20000
C1995       C  0.33593077  0.23052173  0.11695095     0.20600
C1996       C  0.34360054  0.24588436  0.12580438    -0.03000
C1997       C  0.33674665  0.26363513  0.12232331    -0.06000
C1998       C  0.32243315  0.26601491  0.10976879     0.20900
C1999       C  0.34437483  0.27899991  0.13121341     0.19000
C2000       C  0.35878954  0.27643726  0.14348763    -0.17500
C2001       C  0.36572141  0.25889218  0.14676627    -0.19700
C2002       C  0.35827128  0.24355113  0.13794983     0.20500
C2003       C  0.36538452  0.22596252  0.14089296    -0.32700
C2004       C  0.35789380  0.21057067  0.13206851     0.01200
C2005       C  0.34300615  0.21294012  0.12028262    -0.24100
C2006       C  0.31610115  0.28371312  0.10591895    -0.28700
C2007       C  0.32368368  0.29913528  0.11460495     0.06900
C2008       C  0.33766201  0.29664684  0.12744212    -0.27300
H2009       H  0.30383152  0.25225995  0.09142858     0.11600
H2010       H  0.31545135  0.22147731  0.09776060     0.12700
H2011       H  0.36483906  0.28803704  0.15042378     0.11800
H2012       H  0.37697844  0.25732982  0.15616354     0.11100
H2013       H  0.37685574  0.22426072  0.15001584     0.16500
H2014       H  0.33726543  0.20118267  0.11332867     0.12400
H2015       H  0.30528814  0.28549628  0.09603406     0.15200
H2016       H  0.34364889  0.30845854  0.13408610     0.15000
C2017       C  0.37181075  0.25142984  0.84848155    -0.17900
C2018       C  0.36476803  0.26915800  0.84958315    -0.20000
C2019       C  0.34959653  0.27284686  0.86057943     0.20600
C2020       C  0.34130221  0.25845011  0.87039671    -0.03000
C2021       C  0.34839235  0.24055775  0.86927003    -0.06000
C2022       C  0.36375161  0.23710820  0.85830890     0.20900
C2023       C  0.34022125  0.22617723  0.87921405     0.19000
C2024       C  0.32500960  0.22986266  0.89017081    -0.17500
C2025       C  0.31802735  0.24763177  0.89136252    -0.19700
C2026       C  0.32613186  0.26198597  0.88159565     0.20500
C2027       C  0.31967000  0.27991446  0.88327387    -0.32700
C2028       C  0.32827404  0.29443007  0.87408534     0.01200
C2029       C  0.34294314  0.29076016  0.86239929    -0.24100
C2030       C  0.37079414  0.21938506  0.85730774    -0.28700
C2031       C  0.36265563  0.20493758  0.86697669     0.06900
C2032       C  0.34740799  0.20840081  0.87798704    -0.27300
H2033       H  0.38361603  0.24892844  0.83998357     0.11600
H2034       H  0.37130773  0.28002210  0.84198526     0.12700
H2035       H  0.31856731  0.21902421  0.89788801     0.11800
H2036       H  0.30637280  0.25018132  0.90005143     0.11100
H2037       H  0.30831305  0.28265899  0.89230969     0.16500
H2038       H  0.34965548  0.30191411  0.85537381     0.12400
H2039       H  0.38260376  0.21682767  0.84881769     0.15200
H2040       H  0.34113686  0.19730912  0.88550024     0.15000
C2041       C  0.33898823  0.33070720  0.00566481    -0.17900
C2042       C  0.33973508  0.32982880  0.98664807    -0.20000
C2043       C  0.32567771  0.33731893  0.97610786     0.20600
C2044       C  0.31054097  0.34545369  0.98478671    -0.03000
C2045       C  0.30973444  0.34623380  0.00393231    -0.06000
C2046       C  0.32411659  0.33897185  0.01439599     0.20900
C2047       C  0.29465276  0.35448653  0.01258746     0.19000
C2048       C  0.28044854  0.36169897  0.00206107    -0.17500
C2049       C  0.28129643  0.36101587  0.98305722    -0.19700
C2050       C  0.29634852  0.35309899  0.97433727     0.20500
C2051       C  0.29763444  0.35305278  0.95534666    -0.32700
C2052       C  0.31288288  0.34544949  0.94667417     0.01200
C2053       C  0.32666449  0.33721120  0.95705001    -0.24100
C2054       C  0.32339731  0.34015975  0.03340808    -0.28700
C2055       C  0.30843034  0.34836375  0.04206296     0.06900
C2056       C  0.29408682  0.35546004  0.03161854    -0.27300
H2057       H  0.35008948  0.32501570  0.01354390     0.11600
H2058       H  0.35141559  0.32351204  0.98018194     0.12700
H2059       H  0.26876609  0.36801574  0.00852511     0.11800
H2060       H  0.27027270  0.36685951  0.97517440     0.11100
H2061       H  0.28684027  0.35913703  0.94730678     0.16500
H2062       H  0.33836167  0.33118195  0.95032194     0.12400
H2063       H  0.33445837  0.33462508  0.04147158     0.15200
H2064       H  0.28252325  0.36180086  0.03829338     0.15000
C2065       C  0.09577861  0.32868145  0.75639354    -0.17900
C2066       C  0.09378013  0.32249263  0.73845295    -0.20000
C2067       C  0.10305029  0.33115484  0.72413961     0.20600
C2068       C  0.11474291  0.34595889  0.72792099    -0.03000
C2069       C  0.11667734  0.35227296  0.74602018    -0.06000
C2070       C  0.10703615  0.34367129  0.76031058     0.20900
C2071       C  0.12789608  0.36746140  0.74974118     0.19000
C2072       C  0.13747856  0.37586508  0.73546453    -0.17500
C2073       C  0.13561982  0.36955453  0.71753363    -0.19700
C2074       C  0.12411417  0.35476258  0.71357338     0.20500
C2075       C  0.12137053  0.34897349  0.69549808    -0.32700
C2076       C  0.10919523  0.33467369  0.69164175     0.01200
C2077       C  0.10039513  0.32560599  0.70606177    -0.24100
C2078       C  0.10848186  0.35047767  0.77817775    -0.28700
C2079       C  0.11915429  0.36597961  0.78184249     0.06900
C2080       C  0.12900546  0.37423844  0.76760017    -0.27300
H2081       H  0.08829613  0.32191400  0.76717358     0.11600
H2082       H  0.08477437  0.31107777  0.73573883     0.12700
H2083       H  0.14622010  0.38749578  0.73813209     0.11800
H2084       H  0.14294681  0.37644476  0.70672160     0.11100
H2085       H  0.12814369  0.35603005  0.68442162     0.16500
H2086       H  0.09105233  0.31449950  0.70317952     0.12400
H2087       H  0.10086181  0.34409327  0.78910384     0.15200
H2088       H  0.13739293  0.38611671  0.77038722     0.15000
C2089       C  0.22005266  0.38765502  0.83394318    -0.17900
C2090       C  0.23803088  0.38382651  0.83878365    -0.20000
C2091       C  0.24184722  0.37087519  0.85233421     0.20600
C2092       C  0.22738825  0.36162619  0.86105851    -0.03000
C2093       C  0.20923994  0.36546281  0.85614617    -0.06000
C2094       C  0.20560777  0.37859826  0.84258502     0.20900
C2095       C  0.19475001  0.35630242  0.86491400     0.19000
C2096       C  0.19859345  0.34328681  0.87841977    -0.17500
C2097       C  0.21659401  0.33952755  0.88334452    -0.19700
C2098       C  0.23104863  0.34868942  0.87481173     0.20500
C2099       C  0.24908899  0.34530211  0.87992394    -0.32700
C2100       C  0.26352596  0.35453753  0.87134844     0.01200
C2101       C  0.25984624  0.36716494  0.85745156    -0.24100
C2102       C  0.18758719  0.38263445  0.83803029    -0.28700
C2103       C  0.17305071  0.37379294  0.84684848     0.06900
C2104       C  0.17670521  0.36049170  0.86016142    -0.27300
H2105       H  0.21743822  0.39778234  0.82349514     0.11600
H2106       H  0.24894996  0.39106425  0.83198724     0.12700
H2107       H  0.18767168  0.33610843  0.88527101     0.11800
H2108       H  0.21920823  0.32951740  0.89390445     0.11100
H2109       H  0.25190217  0.33551928  0.89065849     0.16500
H2110       H  0.27094807  0.37441784  0.85095596     0.12400
H2111       H  0.18488485  0.39285418  0.82768087     0.15200
H2112       H  0.16555132  0.35364458  0.86699036     0.15000
C2113       C  0.09448788  0.66476524  0.73582104    -0.17900
C2114       C  0.09585831  0.65879061  0.75388094    -0.20000
C2115       C  0.10422357  0.64202473  0.75793812     0.20600
C2116       C  0.11129726  0.63118371  0.74360799    -0.03000
C2117       C  0.11001142  0.63726370  0.72538481    -0.06000
C2118       C  0.10152488  0.65411162  0.72151118     0.20900
C2119       C  0.11707155  0.62641847  0.71105219     0.19000
C2120       C  0.12535367  0.60960896  0.71509626    -0.17500
C2121       C  0.12658848  0.60356209  0.73314524    -0.19700
C2122       C  0.11957812  0.61422854  0.74746546     0.20500
C2123       C  0.12065882  0.60819903  0.76556482    -0.32700
C2124       C  0.11370039  0.61892154  0.77994255     0.01200
C2125       C  0.10557721  0.63587514  0.77603920    -0.24100
C2126       C  0.09999931  0.65991299  0.70338256    -0.28700
C2127       C  0.10681340  0.64911818  0.68899839     0.06900
C2128       C  0.11548845  0.63245219  0.69293670    -0.27300
H2129       H  0.08788630  0.67772091  0.73304080     0.11600
H2130       H  0.09031491  0.66726427  0.76467716     0.12700
H2131       H  0.13080989  0.60109208  0.70428847     0.11800
H2132       H  0.13299934  0.59050458  0.73590385     0.11100
H2133       H  0.12703355  0.59514583  0.76846957     0.16500
H2134       H  0.10017328  0.64417676  0.78704733     0.12400
H2135       H  0.09320993  0.67274754  0.70045462     0.15200
H2136       H  0.12060838  0.62399987  0.68190677     0.15000
C2137       C  0.14218855  0.50486329  0.85993126    -0.17900
C2138       C  0.14241057  0.48570380  0.86022154    -0.20000
C2139       C  0.13251050  0.47563942  0.84726887     0.20600
C2140       C  0.12246841  0.48500436  0.83377224    -0.03000
C2141       C  0.12220411  0.50428354  0.83350892    -0.06000
C2142       C  0.13202893  0.51426139  0.84671443     0.20900
C2143       C  0.11196404  0.51355812  0.82011001     0.19000
C2144       C  0.10237189  0.50354910  0.80693641    -0.17500
C2145       C  0.10266081  0.48446355  0.80717576    -0.19700
C2146       C  0.11254884  0.47511567  0.82058544     0.20500
C2147       C  0.11259943  0.45602899  0.82102148    -0.32700
C2148       C  0.12240867  0.44656589  0.83443737     0.01200
C2149       C  0.13238903  0.45640785  0.84755079    -0.24100
C2150       C  0.13136842  0.53344070  0.84653700    -0.28700
C2151       C  0.12089464  0.54269447  0.83341797     0.06900
C2152       C  0.11134811  0.53268192  0.82018938    -0.27300
H2153       H  0.14985658  0.51233128  0.87012630     0.11600
H2154       H  0.15025409  0.47876085  0.87062585     0.12700
H2155       H  0.09453692  0.51048619  0.79651792     0.11800
H2156       H  0.09505119  0.47700320  0.79692679     0.11100
H2157       H  0.10489238  0.44851363  0.81087142     0.16500
H2158       H  0.14004236  0.44913599  0.85788380     0.12400
H2159       H  0.13884094  0.54115091  0.85671207     0.15200
H2160       H  0.10341369  0.53978067  0.80994022     0.15000
C2161       C  0.38007355  0.70590644  0.11619459    -0.17900
C2162       C  0.38537965  0.72426465  0.11695070    -0.20000
C2163       C  0.37315960  0.73777024  0.12292351     0.20600
C2164       C  0.35555358  0.73273469  0.12859864    -0.03000
C2165       C  0.35023473  0.71415427  0.12795758    -0.06000
C2166       C  0.36247917  0.70072086  0.12147402     0.20900
C2167       C  0.33252986  0.70910089  0.13333209     0.19000
C2168       C  0.32046182  0.72258885  0.13970366    -0.17500
C2169       C  0.32573311  0.74100456  0.14033069    -0.19700
C2170       C  0.34317696  0.74627983  0.13460854     0.20500
C2171       C  0.34845041  0.76481713  0.13468497    -0.32700
C2172       C  0.36598925  0.76988505  0.12894483     0.01200
C2173       C  0.37824042  0.75623014  0.12318276    -0.24100
C2174       C  0.35672118  0.68246725  0.11975573    -0.28700
C2175       C  0.33884294  0.67745760  0.12434730     0.06900
C2176       C  0.32699493  0.69077853  0.13160723    -0.27300
H2177       H  0.38966245  0.69578980  0.11123477     0.11600
H2178       H  0.39898956  0.72793460  0.11263135     0.12700
H2179       H  0.30682343  0.71893218  0.14393449     0.11800
H2180       H  0.31608311  0.75115073  0.14510050     0.11100
H2181       H  0.33901855  0.77522889  0.13934265     0.16500
H2182       H  0.39182691  0.75997299  0.11882180     0.12400
H2183       H  0.36590649  0.67233029  0.11409304     0.15200
H2184       H  0.31316748  0.68706404  0.13513424     0.15000
C2185       C  0.31573931  0.74749698  0.88230580    -0.17900
C2186       C  0.30953241  0.72941273  0.88389513    -0.20000
C2187       C  0.32158338  0.71461321  0.88178718     0.20600
C2188       C  0.33999095  0.71808718  0.87769036    -0.03000
C2189       C  0.34626958  0.73632878  0.87620166    -0.06000
C2190       C  0.33413240  0.75115406  0.87863309     0.20900
C2191       C  0.36476532  0.73970026  0.87250971     0.19000
C2192       C  0.37672303  0.72494687  0.86987924    -0.17500
C2193       C  0.37051346  0.70693346  0.87131178    -0.19700
C2194       C  0.35224526  0.70334472  0.87544529     0.20500
C2195       C  0.34618056  0.68529438  0.87786435    -0.32700
C2196       C  0.32803546  0.68170988  0.88263064     0.01200
C2197       C  0.31570284  0.69644328  0.88417332    -0.24100
C2198       C  0.34064622  0.76929661  0.87740463    -0.28700
C2199       C  0.35918651  0.77269773  0.87399124     0.06900
C2200       C  0.37106574  0.75775132  0.87155629    -0.27300
H2201       H  0.30617454  0.75863297  0.88414059     0.11600
H2202       H  0.29532569  0.72700813  0.88698063     0.12700
H2203       H  0.39095304  0.72734370  0.86688386     0.11800
H2204       H  0.38007793  0.69579892  0.86945143     0.11100
H2205       H  0.35573498  0.67406029  0.87657835     0.16500
H2206       H  0.30165110  0.69381963  0.88778322     0.12400
H2207       H  0.33136302  0.78069533  0.87913422     0.15200
H2208       H  0.38532811  0.76015046  0.86866771     0.15000
C2209       C  0.19771584  0.64260517  0.87807638    -0.17900
C2210       C  0.21564169  0.64444454  0.88410147    -0.20000
C2211       C  0.22985621  0.63553489  0.87489886     0.20600
C2212       C  0.22615906  0.62519273  0.85910695    -0.03000
C2213       C  0.20804156  0.62327488  0.85306711    -0.06000
C2214       C  0.19372495  0.63180094  0.86277513     0.20900
C2215       C  0.20419693  0.61229156  0.83773814     0.19000
C2216       C  0.21852448  0.60394464  0.82814778    -0.17500
C2217       C  0.23651500  0.60595172  0.83407088    -0.19700
C2218       C  0.24046680  0.61626483  0.84973593     0.20500
C2219       C  0.25832211  0.61732835  0.85657165    -0.32700
C2220       C  0.26183310  0.62692370  0.87281074     0.01200
C2221       C  0.24761074  0.63632359  0.88159847    -0.24100
C2222       C  0.17563852  0.62880144  0.85744986    -0.28700
C2223       C  0.17169788  0.61713474  0.84275613     0.06900
C2224       C  0.18605673  0.60930106  0.83268914    -0.27300
H2225       H  0.18692527  0.64929650  0.88563690     0.11600
H2226       H  0.21834515  0.65253212  0.89619873     0.12700
H2227       H  0.21577944  0.59555119  0.81626992     0.11800
H2228       H  0.24728646  0.59908768  0.82664210     0.11100
H2229       H  0.26928066  0.61017085  0.84970131     0.16500
H2230       H  0.25029511  0.64401760  0.89396482     0.12400
H2231       H  0.16462882  0.63483497  0.86525403     0.15200
H2232       H  0.18309308  0.60037374  0.82124712     0.15000
C2233       C  0.28065639  0.62512074  0.99328973    -0.17900
C2234       C  0.28053831  0.62601111  0.01232032    -0.20000
C2235       C  0.29537633  0.63349307  0.02174950     0.20600
C2236       C  0.31035052  0.64046308  0.01192619    -0.03000
C2237       C  0.31050153  0.63949788  0.99271781    -0.06000
C2238       C  0.29563146  0.63166087  0.98340217     0.20900
C2239       C  0.32566947  0.64602598  0.98287222     0.19000
C2240       C  0.34038616  0.65375168  0.99231836    -0.17500
C2241       C  0.34023471  0.65471459  0.01137598    -0.19700
C2242       C  0.32536914  0.64795748  0.02130233     0.20500
C2243       C  0.32551125  0.64799250  0.04043110    -0.32700
C2244       C  0.31094094  0.64040285  0.05025442     0.01200
C2245       C  0.29575190  0.63356776  0.04083464    -0.24100
C2246       C  0.29610415  0.63022422  0.96437859    -0.28700
C2247       C  0.31127974  0.63640657  0.95449454     0.06900
C2248       C  0.32595569  0.64445037  0.96379437    -0.27300
H2249       H  0.26912772  0.61909951  0.98631055     0.11600
H2250       H  0.26894373  0.62061924  0.01967654     0.12700
H2251       H  0.35211309  0.65886310  0.98497439     0.11800
H2252       H  0.35186859  0.66051062  0.01836689     0.11100
H2253       H  0.33729243  0.65320365  0.04764437     0.16500
H2254       H  0.28448721  0.62768576  0.04834897     0.12400
H2255       H  0.28471814  0.62405331  0.95727742     0.15200
H2256       H  0.33766030  0.64928687  0.95621699     0.15000
C2257       C  0.08924446  0.64682531  0.24615319    -0.17900
C2258       C  0.08704585  0.65323896  0.26401595    -0.20000
C2259       C  0.09727022  0.64572476  0.27833554     0.20600
C2260       C  0.10974242  0.63152579  0.27466973    -0.03000
C2261       C  0.11191393  0.62500678  0.25664485    -0.06000
C2262       C  0.10167637  0.63275681  0.24229930     0.20900
C2263       C  0.12429755  0.61071520  0.25300010     0.19000
C2264       C  0.13445405  0.60315092  0.26733678    -0.17500
C2265       C  0.13233356  0.60963791  0.28517805    -0.19700
C2266       C  0.12000472  0.62379292  0.28900991     0.20500
C2267       C  0.11768832  0.63027102  0.30692055    -0.32700
C2268       C  0.10528889  0.64442431  0.31065431     0.01200
C2269       C  0.09516811  0.65209683  0.29626238    -0.24100
C2270       C  0.10401564  0.62626150  0.22439026    -0.28700
C2271       C  0.11623806  0.61191990  0.22070687     0.06900
C2272       C  0.12627955  0.60419911  0.23510069    -0.27300
H2273       H  0.08121312  0.65287503  0.23534543     0.11600
H2274       H  0.07735347  0.66410703  0.26662877     0.12700
H2275       H  0.14404253  0.59218355  0.26475149     0.11800
H2276       H  0.14031966  0.60354574  0.29599602     0.11100
H2277       H  0.12543895  0.62423429  0.31794980     0.16500
H2278       H  0.08545661  0.66291940  0.29903616     0.12400
H2279       H  0.09614515  0.63216372  0.21337351     0.15200
H2280       H  0.13575714  0.59316174  0.23234056     0.15000
C2281       C  0.22029824  0.64391696  0.12456403    -0.17900
C2282       C  0.20227425  0.64068393  0.12982372    -0.20000
C2283       C  0.19791787  0.62561086  0.14082323     0.20600
C2284       C  0.21199816  0.61395920  0.14694625    -0.03000
C2285       C  0.23021390  0.61727198  0.14170785    -0.06000
C2286       C  0.23430653  0.63215554  0.13023178     0.20900
C2287       C  0.24424472  0.60542953  0.14758156     0.19000
C2288       C  0.23995244  0.59060840  0.15892683    -0.17500
C2289       C  0.22191635  0.58727824  0.16404022    -0.19700
C2290       C  0.20784947  0.59876403  0.15798509     0.20500
C2291       C  0.18969022  0.59513496  0.16256264    -0.32700
C2292       C  0.17549695  0.60645630  0.15628945     0.01200
C2293       C  0.17974162  0.62180273  0.14555495    -0.24100
C2294       C  0.25223344  0.63471066  0.12419342    -0.28700
C2295       C  0.26620454  0.62261518  0.12946078     0.06900
C2296       C  0.26219635  0.60828108  0.14155832    -0.27300
H2297       H  0.22324477  0.65547801  0.11582112     0.11600
H2298       H  0.19170153  0.64983273  0.12506334     0.12700
H2299       H  0.25051081  0.58140159  0.16360541     0.11800
H2300       H  0.21894190  0.57557704  0.17258783     0.11100
H2301       H  0.18659146  0.58327646  0.17085963     0.16500
H2302       H  0.16891579  0.63059338  0.14067923     0.12400
H2303       H  0.25523578  0.64592662  0.11501781     0.15200
H2304       H  0.27288065  0.59895416  0.14570859     0.15000
C2305       C  0.12491009  0.37592842  0.28959470    -0.17900
C2306       C  0.12543470  0.38106899  0.27125480    -0.20000
C2307       C  0.11998205  0.36878175  0.25757493     0.20600
C2308       C  0.11401819  0.35111306  0.26232926    -0.03000
C2309       C  0.11352970  0.34590903  0.28084507    -0.06000
C2310       C  0.11895578  0.35840300  0.29454972     0.20900
C2311       C  0.10732343  0.32833005  0.28565038     0.19000
C2312       C  0.10185168  0.31605560  0.27196176    -0.17500
C2313       C  0.10236749  0.32120998  0.25359996    -0.19700
C2314       C  0.10834639  0.33873464  0.24861665     0.20500
C2315       C  0.10860406  0.34418100  0.23022098    -0.32700
C2316       C  0.11449277  0.36182960  0.22545723     0.01200
C2317       C  0.12023866  0.37396145  0.23923454    -0.24100
C2318       C  0.11788554  0.35331570  0.31296909    -0.28700
C2319       C  0.11123642  0.33599384  0.31781805     0.06900
C2320       C  0.10625858  0.32349042  0.30408133    -0.27300
H2321       H  0.12904721  0.38570727  0.29991233     0.11600
H2322       H  0.13001118  0.39471571  0.26777052     0.12700
H2323       H  0.09702551  0.30250579  0.27547003     0.11800
H2324       H  0.09797207  0.31152592  0.24330355     0.11100
H2325       H  0.10414687  0.33478524  0.21968015     0.16500
H2326       H  0.12476457  0.38762317  0.23571166     0.12400
H2327       H  0.12150361  0.36306997  0.32351625     0.15200
H2328       H  0.10103790  0.31012388  0.30775945     0.15000
C2329       C  0.18979896  0.34049778  0.11845895    -0.17900
C2330       C  0.20747337  0.33815958  0.11163620    -0.20000
C2331       C  0.22215020  0.34784607  0.11923644     0.20600
C2332       C  0.21897331  0.35997313  0.13387435    -0.03000
C2333       C  0.20115515  0.36235943  0.14071975    -0.06000
C2334       C  0.18645729  0.35259166  0.13299052     0.20900
C2335       C  0.19806351  0.37463495  0.15523751     0.19000
C2336       C  0.21267269  0.38433755  0.16284282    -0.17500
C2337       C  0.23028431  0.38194152  0.15611031    -0.19700
C2338       C  0.23358907  0.36981031  0.14164975     0.20500
C2339       C  0.25125611  0.36742722  0.13482417    -0.32700
C2340       C  0.25457569  0.35543085  0.12022582     0.01200
C2341       C  0.23992788  0.34569708  0.11245790    -0.24100
C2342       C  0.16871888  0.35528864  0.13981162    -0.28700
C2343       C  0.16560195  0.36773712  0.15415081     0.06900
C2344       C  0.18039849  0.37720140  0.16181874    -0.27300
H2345       H  0.17873245  0.33289424  0.11231717     0.11600
H2346       H  0.20965952  0.32878287  0.10038505     0.12700
H2347       H  0.21046846  0.39383723  0.17399236     0.11800
H2348       H  0.24133133  0.38961724  0.16220292     0.11100
H2349       H  0.26241733  0.37506570  0.14077341     0.16500
H2350       H  0.24236189  0.33644861  0.10114302     0.12400
H2351       H  0.15736806  0.34802932  0.13376558     0.15200
H2352       H  0.17815425  0.38681046  0.17287991     0.15000
C2353       C  0.13726633  0.49493374  0.14393679    -0.17900
C2354       C  0.13658397  0.47583934  0.14410060    -0.20000
C2355       C  0.12536627  0.46669719  0.15657500     0.20600
C2356       C  0.11452002  0.47686725  0.16884742    -0.03000
C2357       C  0.11516356  0.49612769  0.16864199    -0.06000
C2358       C  0.12672504  0.50515454  0.15622870     0.20900
C2359       C  0.10444194  0.50633050  0.18100340     0.19000
C2360       C  0.09299069  0.49716950  0.19326985    -0.17500
C2361       C  0.09240318  0.47804460  0.19352236    -0.19700
C2362       C  0.10322108  0.46779789  0.18148115     0.20500
C2363       C  0.10309980  0.44864698  0.18197477    -0.32700
C2364       C  0.11401900  0.43848788  0.16991374     0.01200
C2365       C  0.12496768  0.44756388  0.15713232    -0.24100
C2366       C  0.12773155  0.52424542  0.15646198    -0.28700
C2367       C  0.11733943  0.53448110  0.16891003     0.06900
C2368       C  0.10555650  0.52548882  0.18101895    -0.27300
H2369       H  0.14615536  0.50171075  0.13428955     0.11600
H2370       H  0.14495168  0.46821722  0.13457869     0.12700
H2371       H  0.08462829  0.50479134  0.20279239     0.11800
H2372       H  0.08359431  0.47126352  0.20323670     0.11100
H2373       H  0.09454611  0.44164764  0.19177779     0.16500
H2374       H  0.13340869  0.43973919  0.14782480     0.12400
H2375       H  0.13674332  0.53114318  0.14699870     0.15200
H2376       H  0.09746811  0.53336541  0.19058619     0.15000
C2377       C  0.93121483  0.55816983  0.13682233    -0.17900
C2378       C  0.94613114  0.55440747  0.12561830    -0.20000
C2379       C  0.94915510  0.56464585  0.10974028     0.20600
C2380       C  0.93719397  0.57899707  0.10523143    -0.03000
C2381       C  0.92206058  0.58285112  0.11661457    -0.06000
C2382       C  0.91904951  0.57226395  0.13238112     0.20900
C2383       C  0.90987704  0.59710667  0.11214551     0.19000
C2384       C  0.91326714  0.60761330  0.09646018    -0.17500
C2385       C  0.92838225  0.60390088  0.08528564    -0.19700
C2386       C  0.94037452  0.58948824  0.08943468     0.20500
C2387       C  0.95540213  0.58534553  0.07809007    -0.32700
C2388       C  0.96704649  0.57032013  0.08192724     0.01200
C2389       C  0.96393305  0.56063149  0.09834377    -0.24100
C2390       C  0.90377580  0.57566553  0.14331644    -0.28700
C2391       C  0.89115885  0.58943474  0.13880918     0.06900
C2392       C  0.89444846  0.60033618  0.12327758    -0.27300
H2393       H  0.92910798  0.54993100  0.14890921     0.11600
H2394       H  0.95523688  0.54335242  0.12930442     0.12700
H2395       H  0.90416539  0.61866077  0.09276437     0.11800
H2396       H  0.93057253  0.61219931  0.07325690     0.11100
H2397       H  0.95802602  0.59396158  0.06639531     0.16500
H2398       H  0.97316003  0.54983464  0.10240114     0.12400
H2399       H  0.90150265  0.56720912  0.15523342     0.15200
H2400       H  0.88483667  0.61095969  0.11962832     0.15000
C2401       C  0.05219035  0.56705348  0.07701047    -0.17900
C2402       C  0.06777388  0.57109315  0.08724743    -0.20000
C2403       C  0.06648334  0.58145265  0.10334815     0.20600
C2404       C  0.04936484  0.58820882  0.10888677    -0.03000
C2405       C  0.03362556  0.58410906  0.09852056    -0.06000
C2406       C  0.03501270  0.57328820  0.08267370     0.20900
C2407       C  0.01646964  0.59043184  0.10430695     0.19000
C2408       C  0.01523936  0.60126132  0.12011382    -0.17500
C2409       C  0.03076907  0.60524166  0.13042837    -0.19700
C2410       C  0.04786272  0.59855710  0.12509321     0.20500
C2411       C  0.06333103  0.60150159  0.13599445    -0.32700
C2412       C  0.08033766  0.59424113  0.13092807     0.01200
C2413       C  0.08186408  0.58461780  0.11432339    -0.24100
C2414       C  0.01917632  0.56827822  0.07314756    -0.28700
C2415       C  0.00157108  0.57343294  0.07932327     0.06900
C2416       C  0.00074055  0.58536799  0.09462441    -0.27300
H2417       H  0.05353495  0.55873368  0.06483708     0.11600
H2418       H  0.08079728  0.56581356  0.08274612     0.12700
H2419       H  0.00217388  0.60632040  0.12475266     0.11800
H2420       H  0.02934859  0.61328089  0.14277590     0.11100
H2421       H  0.06199710  0.60890186  0.14874918     0.16500
H2422       H  0.09487019  0.57887780  0.11032914     0.12400
H2423       H  0.02040991  0.55938113  0.06136036     0.15200
H2424       H  0.98786261  0.59051922  0.09955802     0.15000
C2425       C  0.91834696  0.43342396  0.12353419    -0.17900
C2426       C  0.93206248  0.43898050  0.11168936    -0.20000
C2427       C  0.94164099  0.42605332  0.10129839     0.20600
C2428       C  0.93727606  0.40734810  0.10268757    -0.03000
C2429       C  0.92323241  0.40169886  0.11460415    -0.06000
C2430       C  0.91391107  0.41485928  0.12511426     0.20900
C2431       C  0.91864213  0.38298475  0.11615655     0.19000
C2432       C  0.92844096  0.37009982  0.10579336    -0.17500
C2433       C  0.94265355  0.37570315  0.09422544    -0.19700
C2434       C  0.94720856  0.39433216  0.09257502     0.20500
C2435       C  0.96177523  0.40017406  0.08144168    -0.32700
C2436       C  0.96642128  0.41897998  0.07995629     0.01200
C2437       C  0.95592889  0.43166442  0.09010324    -0.24100
C2438       C  0.90026915  0.40936538  0.13709582    -0.28700
C2439       C  0.89527320  0.39088631  0.13869991     0.06900
C2440       C  0.90443270  0.37764651  0.12807686    -0.27300
H2441       H  0.91123388  0.44366918  0.13152073     0.11600
H2442       H  0.93531416  0.45341582  0.11080321     0.12700
H2443       H  0.92523453  0.35566866  0.10675875     0.11800
H2444       H  0.95011844  0.36544274  0.08659909     0.11100
H2445       H  0.96994064  0.39006765  0.07433826     0.16500
H2446       H  0.95945187  0.44599396  0.09055911     0.12400
H2447       H  0.89321912  0.41972628  0.14501406     0.15200
H2448       H  0.90066209  0.36336194  0.12920971     0.15000
C2449       C  0.03757152  0.38221396  0.08297891    -0.17900
C2450       C  0.05109825  0.37564331  0.09473675    -0.20000
C2451       C  0.05201728  0.38175931  0.11287611     0.20600
C2452       C  0.03887058  0.39428721  0.11932100    -0.03000
C2453       C  0.02542326  0.40114111  0.10736358    -0.06000
C2454       C  0.02484363  0.39521410  0.08905755     0.20900
C2455       C  0.01272863  0.41409971  0.11369525     0.19000
C2456       C  0.01324500  0.41984211  0.13196149    -0.17500
C2457       C  0.02647652  0.41301319  0.14381790    -0.19700
C2458       C  0.03944693  0.40037343  0.13758387     0.20500
C2459       C  0.05337870  0.39427642  0.14911289    -0.32700
C2460       C  0.06713925  0.38261075  0.14253577     0.01200
C2461       C  0.06617906  0.37610242  0.12449024    -0.24100
C2462       C  0.01172436  0.40250715  0.07710241    -0.28700
C2463       C  0.99944833  0.41624004  0.08299517     0.06900
C2464       C  0.99988018  0.42134530  0.10163843    -0.27300
H2465       H  0.03729916  0.37739103  0.06900197     0.11600
H2466       H  0.06099147  0.36594441  0.08956415     0.12700
H2467       H  0.00353368  0.42978724  0.13703172     0.11800
H2468       H  0.02675146  0.41785471  0.15778912     0.11100
H2469       H  0.05410407  0.39951674  0.16293678     0.16500
H2470       H  0.07676625  0.36716138  0.11932366     0.12400
H2471       H  0.01117233  0.39727243  0.06332463     0.15200
H2472       H  0.99028727  0.43141285  0.10669623     0.15000
C2473       C  0.95814614  0.50394719  0.05139318    -0.17900
C2474       C  0.95864350  0.48481696  0.05090300    -0.20000
C2475       C  0.97264380  0.47523796  0.05970860     0.20600
C2476       C  0.98635864  0.48503486  0.06889457    -0.03000
C2477       C  0.98594018  0.50439897  0.06920834    -0.06000
C2478       C  0.97175289  0.51386061  0.06052588     0.20900
C2479       C  0.99932950  0.51423864  0.07874403     0.19000
C2480       C  0.01322052  0.50463457  0.08777065    -0.17500
C2481       C  0.01382381  0.48547482  0.08723213    -0.19700
C2482       C  0.00037214  0.47552008  0.07792341     0.20500
C2483       C  0.00051276  0.45626388  0.07784089    -0.32700
C2484       C  0.98620666  0.44615315  0.06967093     0.01200
C2485       C  0.97282437  0.45605179  0.05990307    -0.24100
C2486       C  0.97117998  0.53304406  0.06124278    -0.28700
C2487       C  0.98505190  0.54358568  0.06966592     0.06900
C2488       C  0.99854870  0.53347120  0.07932401    -0.27300
H2489       H  0.94709601  0.51100043  0.04460439     0.11600
H2490       H  0.94794671  0.47750673  0.04381769     0.12700
H2491       H  0.02367174  0.51194797  0.09521416     0.11800
H2492       H  0.02468072  0.47843392  0.09433087     0.11100
H2493       H  0.01180485  0.44939940  0.08430391     0.16500
H2494       H  0.96197958  0.44867432  0.05310923     0.12400
H2495       H  0.95926003  0.53937121  0.05571124     0.15200
H2496       H  0.00816438  0.54019223  0.08817085     0.15000
C2497       C  0.92777669  0.37188450  0.90006486    -0.17900
C2498       C  0.94267594  0.37742762  0.91075672    -0.20000
C2499       C  0.94789195  0.39593349  0.91157213     0.20600
C2500       C  0.93794289  0.40889320  0.90144823    -0.03000
C2501       C  0.92318958  0.40326303  0.89033317    -0.06000
C2502       C  0.91792581  0.38467578  0.88970541     0.20900
C2503       C  0.91378905  0.41628207  0.87975931     0.19000
C2504       C  0.91894325  0.43474021  0.88049492    -0.17500
C2505       C  0.93333477  0.44029731  0.89160454    -0.19700
C2506       C  0.94292619  0.42748475  0.90210265     0.20500
C2507       C  0.95766167  0.43305410  0.91285443    -0.32700
C2508       C  0.96797235  0.42041589  0.92325525     0.01200
C2509       C  0.96299588  0.40168111  0.92205201    -0.24100
C2510       C  0.90299012  0.37931716  0.87871736    -0.28700
C2511       C  0.89369002  0.39233143  0.86800872     0.06900
C2512       C  0.89935992  0.41071873  0.86861362    -0.27300
H2513       H  0.92405366  0.35754475  0.89978952     0.11600
H2514       H  0.95010712  0.36721498  0.91843123     0.12700
H2515       H  0.91182464  0.44490988  0.87246658     0.11800
H2516       H  0.93704054  0.45464604  0.89189520     0.11100
H2517       H  0.96153592  0.44728684  0.91207865     0.16500
H2518       H  0.97105159  0.39156686  0.92922023     0.12400
H2519       H  0.89875118  0.36512186  0.87835787     0.15200
H2520       H  0.89223440  0.42091825  0.86060814     0.15000
C2521       C  0.03127405  0.41761706  0.86144645    -0.17900
C2522       C  0.01699436  0.42315813  0.87276400    -0.20000
C2523       C  0.01612188  0.41716835  0.89091082     0.20600
C2524       C  0.02963536  0.40535655  0.89769824    -0.03000
C2525       C  0.04419339  0.39986613  0.88629954    -0.06000
C2526       C  0.04498741  0.40607680  0.86811459     0.20900
C2527       C  0.05811255  0.38850037  0.89319004     0.19000
C2528       C  0.05697826  0.38227185  0.91126434    -0.17500
C2529       C  0.04236392  0.38745771  0.92245321    -0.19700
C2530       C  0.02871448  0.39919886  0.91588719     0.20500
C2531       C  0.01438387  0.40511731  0.92726613    -0.32700
C2532       C  0.00134838  0.41795262  0.92100604     0.01200
C2533       C  0.00215640  0.42317147  0.90243386    -0.24100
C2534       C  0.05971967  0.40108582  0.85703674    -0.28700
C2535       C  0.07406066  0.39040274  0.86395791     0.06900
C2536       C  0.07307913  0.38396861  0.88202165    -0.27300
H2537       H  0.03172078  0.42256403  0.84753405     0.11600
H2538       H  0.00670124  0.43227172  0.86735854     0.12700
H2539       H  0.06747566  0.37348691  0.91680591     0.11800
H2540       H  0.04192157  0.38254175  0.93637366     0.11100
H2541       H  0.01367210  0.39972208  0.94094875     0.16500
H2542       H  0.99213414  0.43261510  0.89708886     0.12400
H2543       H  0.06042577  0.40628086  0.84321535     0.15200
H2544       H  0.08409894  0.37578465  0.88747301     0.15000
C2545       C  0.95616096  0.40550160  0.01095862    -0.17900
C2546       C  0.95634387  0.40576164  0.99184116    -0.20000
C2547       C  0.97187983  0.41153821  0.98228862     0.20600
C2548       C  0.98756637  0.41648648  0.99217331    -0.03000
C2549       C  0.98739642  0.41618713  0.01151416    -0.06000
C2550       C  0.97152019  0.41098301  0.02095978     0.20900
C2551       C  0.00279465  0.42202208  0.02134910     0.19000
C2552       C  0.01845334  0.42746808  0.01184254    -0.17500
C2553       C  0.01860240  0.42780567  0.99275481    -0.19700
C2554       C  0.00310642  0.42267681  0.98280379     0.20500
C2555       C  0.00263818  0.42451972  0.96374170    -0.32700
C2556       C  0.98690736  0.42012221  0.95346952     0.01200
C2557       C  0.97162488  0.41333439  0.96314259    -0.24100
C2558       C  0.97090228  0.41226933  0.04013980    -0.28700
C2559       C  0.98599955  0.41881790  0.05024208     0.06900
C2560       C  0.00200576  0.42325402  0.04044885    -0.27300
H2561       H  0.94382270  0.40142443  0.01792864     0.11600
H2562       H  0.94414249  0.40186625  0.98452707     0.12700
H2563       H  0.03044288  0.43194623  0.01917831     0.11800
H2564       H  0.03070991  0.43252947  0.98577890     0.11100
H2565       H  0.01433947  0.43029449  0.95683896     0.16500
H2566       H  0.95897738  0.41061967  0.95616697     0.12400
H2567       H  0.95814230  0.40938185  0.04684977     0.15200
H2568       H  0.01360419  0.42873093  0.04776568     0.15000
C2569       C  0.91308960  0.60885912  0.90685002    -0.17900
C2570       C  0.92844155  0.60533355  0.91769109    -0.20000
C2571       C  0.93984318  0.59033594  0.91392327     0.20600
C2572       C  0.93581512  0.57899512  0.89888753    -0.03000
C2573       C  0.92045741  0.58266400  0.88781953    -0.06000
C2574       C  0.90890508  0.59757648  0.89188282     0.20900
C2575       C  0.91662324  0.57129303  0.87274956     0.19000
C2576       C  0.92814559  0.55651704  0.86874525    -0.17500
C2577       C  0.94330386  0.55293464  0.87964541    -0.19700
C2578       C  0.94718598  0.56402236  0.89478854     0.20500
C2579       C  0.96226547  0.56028869  0.90583512    -0.32700
C2580       C  0.96621235  0.57090653  0.92151499     0.01200
C2581       C  0.95514696  0.58647552  0.92489191    -0.24100
C2582       C  0.89333686  0.60075553  0.88102744    -0.28700
C2583       C  0.88932872  0.58923178  0.86610716     0.06900
C2584       C  0.90122994  0.57469372  0.86202679    -0.27300
H2585       H  0.90445911  0.62040537  0.91020965     0.11600
H2586       H  0.93129841  0.61425988  0.92914925     0.12700
H2587       H  0.92538331  0.54765661  0.85721022     0.11800
H2588       H  0.95194160  0.54138643  0.87628999     0.11100
H2589       H  0.97109362  0.54904811  0.90202952     0.16500
H2590       H  0.95846543  0.59570150  0.93596805     0.12400
H2591       H  0.88423730  0.61194981  0.88434746     0.15200
H2592       H  0.89831008  0.56568149  0.85063859     0.15000
C2593       C  0.06664841  0.57862230  0.91410872    -0.17900
C2594       C  0.05155346  0.57334391  0.92451465    -0.20000
C2595       C  0.03385204  0.57786191  0.91890144     0.20600
C2596       C  0.03141500  0.58814050  0.90286082    -0.03000
C2597       C  0.04664984  0.59338337  0.89225204    -0.06000
C2598       C  0.06433672  0.58844539  0.89783135     0.20900
C2599       C  0.04412304  0.60302313  0.87577204     0.19000
C2600       C  0.02646161  0.60791766  0.87041836    -0.17500
C2601       C  0.01143445  0.60290413  0.88102610    -0.19700
C2602       C  0.01374812  0.59276030  0.89712729     0.20500
C2603       C  0.99862216  0.58676023  0.90720810    -0.32700
C2604       C  0.00054558  0.57546861  0.92289020     0.01200
C2605       C  0.01858637  0.57172783  0.92872990    -0.24100
C2606       C  0.07930764  0.59276840  0.88669665    -0.28700
C2607       C  0.07681826  0.60154220  0.86978597     0.06900
C2608       C  0.05919785  0.60698078  0.86462140    -0.27300
H2609       H  0.08012397  0.57469073  0.91861289     0.11600
H2610       H  0.05371910  0.56546580  0.93682467     0.12700
H2611       H  0.02423429  0.61537180  0.85785834     0.11800
H2612       H  0.99793776  0.60662629  0.87640301     0.11100
H2613       H  0.98537038  0.59072825  0.90224627     0.16500
H2614       H  0.02071029  0.56316538  0.94059738     0.12400
H2615       H  0.09280273  0.58839433  0.89074362     0.15200
H2616       H  0.05714393  0.61373242  0.85163326     0.15000
C2617       C  0.94943707  0.56587081  0.01099457    -0.17900
C2618       C  0.94934573  0.56619340  0.99189989    -0.20000
C2619       C  0.96490034  0.57163955  0.98220500     0.20600
C2620       C  0.98032217  0.57756869  0.99183646    -0.03000
C2621       C  0.98042653  0.57720621  0.01114776    -0.06000
C2622       C  0.96508837  0.57096852  0.02072699     0.20900
C2623       C  0.99587837  0.58299417  0.02085139     0.19000
C2624       C  0.01078471  0.59007546  0.01113180    -0.17500
C2625       C  0.01066695  0.59046800  0.99199230    -0.19700
C2626       C  0.99566301  0.58373615  0.98217757     0.20500
C2627       C  0.99607009  0.58234628  0.96297959    -0.32700
C2628       C  0.98172612  0.57378883  0.95312557     0.01200
C2629       C  0.96548255  0.57053734  0.96310115    -0.24100
C2630       C  0.96579982  0.56934096  0.03979642    -0.28700
C2631       C  0.98208512  0.57235200  0.04975684     0.06900
C2632       C  0.99644205  0.58101394  0.03998394    -0.27300
H2633       H  0.93743545  0.56111249  0.01813263     0.11600
H2634       H  0.93728594  0.56166096  0.98471472     0.12700
H2635       H  0.02276829  0.59481886  0.01830770     0.11800
H2636       H  0.02256511  0.59548979  0.98487017     0.11100
H2637       H  0.00791328  0.58762746  0.95620552     0.16500
H2638       H  0.95312741  0.56673761  0.95610019     0.12400
H2639       H  0.95344019  0.56556160  0.04680008     0.15200
H2640       H  0.00840198  0.58602366  0.04679599     0.15000
C2641       C  0.01579215  0.48703877  0.91806673    -0.17900
C2642       C  0.01506967  0.50620267  0.91743810    -0.20000
C2643       C  0.00069386  0.51577076  0.92576921     0.20600
C2644       C  0.98704286  0.50585655  0.93485606    -0.03000
C2645       C  0.98760269  0.48648885  0.93526845    -0.06000
C2646       C  0.00199944  0.47702554  0.92678262     0.20900
C2647       C  0.97359288  0.47663024  0.94392436     0.19000
C2648       C  0.95924878  0.48615906  0.95225168    -0.17500
C2649       C  0.95861170  0.50527504  0.95165610    -0.19700
C2650       C  0.97241992  0.51522899  0.94290654     0.20500
C2651       C  0.97154621  0.53436176  0.94184665    -0.32700
C2652       C  0.98546527  0.54501399  0.93365736     0.01200
C2653       C  0.99963604  0.53501398  0.92486451    -0.24100
C2654       C  0.00215137  0.45776097  0.92674267    -0.28700
C2655       C  0.98751654  0.44758582  0.93424553     0.06900
C2656       C  0.97379906  0.45743509  0.94361387    -0.27300
H2657       H  0.02698135  0.48003540  0.91143243     0.11600
H2658       H  0.02575724  0.51354155  0.91038753     0.12700
H2659       H  0.94834968  0.47881453  0.95896741     0.11800
H2660       H  0.94724865  0.51228464  0.95799141     0.11100
H2661       H  0.95928281  0.54058652  0.94674525     0.16500
H2662       H  0.00956954  0.54174918  0.91643203     0.12400
H2663       H  0.01371050  0.45094292  0.92068230     0.15200
H2664       H  0.96273514  0.45001715  0.94998366     0.15000
C2665       C  0.13341258  0.95069271  0.57946453    -0.17900
C2666       C  0.12185029  0.96510447  0.57460659    -0.20000
C2667       C  0.10297059  0.96355217  0.57702686     0.20600
C2668       C  0.09569492  0.94743333  0.58453636    -0.03000
C2669       C  0.10730435  0.93270204  0.58903219    -0.06000
C2670       C  0.12626362  0.93438225  0.58657218     0.20900
C2671       C  0.09990924  0.91624955  0.59581570     0.19000
C2672       C  0.08104228  0.91477919  0.59827024    -0.17500
C2673       C  0.06962925  0.92959365  0.59438599    -0.19700
C2674       C  0.07681875  0.94597728  0.58748815     0.20500
C2675       C  0.06536323  0.96072319  0.58315462    -0.32700
C2676       C  0.07211065  0.97626872  0.57387291     0.01200
C2677       C  0.09122651  0.97761339  0.57153599    -0.24100
C2678       C  0.13768901  0.91963768  0.59100555    -0.28700
C2679       C  0.13039091  0.90309194  0.59756011     0.06900
C2680       C  0.11147443  0.90152178  0.59989842    -0.27300
H2681       H  0.14792901  0.95221930  0.57744913     0.11600
H2682       H  0.12767313  0.97744439  0.56888849     0.12700
H2683       H  0.07511514  0.90220690  0.60334372     0.11800
H2684       H  0.05512000  0.92812738  0.59650741     0.11100
H2685       H  0.05118950  0.95952518  0.58669714     0.16500
H2686       H  0.09695521  0.98943792  0.56475491     0.12400
H2687       H  0.15222166  0.92086548  0.58884830     0.15200
H2688       H  0.10572084  0.88874793  0.60468771     0.15000
C2689       C  0.09486475  0.04660481  0.62177826    -0.17900
C2690       C  0.08341811  0.03228364  0.61590381    -0.20000
C2691       C  0.08078887  0.02876746  0.59719616     0.20600
C2692       C  0.08970070  0.04001140  0.58441666    -0.03000
C2693       C  0.10138569  0.05427778  0.59030327    -0.06000
C2694       C  0.10407699  0.05767890  0.60908920     0.20900
C2695       C  0.11062210  0.06494293  0.57727283     0.19000
C2696       C  0.10796405  0.06167709  0.55864396    -0.17500
C2697       C  0.09646046  0.04769714  0.55288359    -0.19700
C2698       C  0.08742197  0.03670511  0.56564996     0.20500
C2699       C  0.07683624  0.02200431  0.55971770    -0.32700
C2700       C  0.06804941  0.01001143  0.57207975     0.01200
C2701       C  0.06999302  0.01391310  0.59099381    -0.24100
C2702       C  0.11604656  0.07190840  0.61466383    -0.28700
C2703       C  0.12554346  0.08231756  0.60150870     0.06900
C2704       C  0.12255398  0.07864023  0.58293122    -0.27300
H2705       H  0.09666954  0.04887362  0.63626665     0.11600
H2706       H  0.07675041  0.02384126  0.62602175     0.12700
H2707       H  0.11494649  0.06983184  0.54849253     0.11800
H2708       H  0.09484466  0.04530683  0.53838589     0.11100
H2709       H  0.07681469  0.01947408  0.54523955     0.16500
H2710       H  0.06380143  0.00481079  0.60085117     0.12400
H2711       H  0.11818022  0.07463478  0.62903036     0.15200
H2712       H  0.12950530  0.08665644  0.57262839     0.15000
C2713       C  0.12174461  0.94911647  0.38311675    -0.17900
C2714       C  0.11097547  0.96395362  0.38854562    -0.20000
C2715       C  0.09531357  0.96118150  0.39916643     0.20600
C2716       C  0.09028188  0.94329501  0.40407173    -0.03000
C2717       C  0.10085853  0.92825188  0.39815715    -0.06000
C2718       C  0.11685332  0.93120235  0.38790013     0.20900
C2719       C  0.09570441  0.91031927  0.40295873     0.19000
C2720       C  0.07996225  0.90756713  0.41344158    -0.17500
C2721       C  0.06973993  0.92250746  0.41962253    -0.19700
C2722       C  0.07490202  0.94043847  0.41515804     0.20500
C2723       C  0.06516386  0.95552951  0.42191842    -0.32700
C2724       C  0.06990657  0.97375504  0.41726396     0.01200
C2725       C  0.08484332  0.97606977  0.40515682    -0.24100
C2726       C  0.12799261  0.91627299  0.38319435    -0.28700
C2727       C  0.12326397  0.89842143  0.38852175     0.06900
C2728       C  0.10677879  0.89552641  0.39787002    -0.27300
H2729       H  0.13397488  0.95167024  0.37528140     0.11600
H2730       H  0.11510838  0.97765567  0.38473064     0.12700
H2731       H  0.07579725  0.89387385  0.41723685     0.11800
H2732       H  0.05787401  0.92003941  0.42802782     0.11100
H2733       H  0.05387238  0.95315446  0.43113492     0.16500
H2734       H  0.08882196  0.98946883  0.40040885     0.12400
H2735       H  0.14068509  0.91863131  0.37605283     0.15200
H2736       H  0.10304542  0.88182705  0.40210478     0.15000
C2737       C  0.08443985  0.06374302  0.38683364    -0.17900
C2738       C  0.07301944  0.04874207  0.39035392    -0.20000
C2739       C  0.07762421  0.03578210  0.40373786     0.20600
C2740       C  0.09399902  0.03795356  0.41348640    -0.03000
C2741       C  0.10574813  0.05275447  0.40959603    -0.06000
C2742       C  0.10089780  0.06588890  0.39635333     0.20900
C2743       C  0.12234919  0.05440287  0.41906008     0.19000
C2744       C  0.12712227  0.04140814  0.43224789    -0.17500
C2745       C  0.11542006  0.02695949  0.43623508    -0.19700
C2746       C  0.09883234  0.02518726  0.42698188     0.20500
C2747       C  0.08717839  0.01067746  0.43096287    -0.32700
C2748       C  0.07051249  0.00816076  0.42162276     0.01200
C2749       C  0.06631156  0.02061290  0.40739672    -0.24100
C2750       C  0.11251035  0.08095501  0.39310967    -0.28700
C2751       C  0.12896988  0.08273911  0.40282818     0.06900
C2752       C  0.13383710  0.06916167  0.41546896    -0.27300
H2753       H  0.08042786  0.07362489  0.37660290     0.11600
H2754       H  0.06048747  0.04737373  0.38271024     0.12700
H2755       H  0.13984962  0.04251227  0.43961066     0.11800
H2756       H  0.11935552  0.01715138  0.44657282     0.11100
H2757       H  0.09153486  0.00081691  0.44103813     0.16500
H2758       H  0.05456965  0.01839960  0.39880401     0.12400
H2759       H  0.10862155  0.09136921  0.38335931     0.15200
H2760       H  0.14644974  0.07033879  0.42303622     0.15000
C2761       C  0.03871855  0.01535798  0.50541628    -0.17900
C2762       C  0.03871570  0.01532076  0.48637305    -0.20000
C2763       C  0.04887437  0.00226783  0.47665306     0.20600
C2764       C  0.05925091  0.98929084  0.48618690    -0.03000
C2765       C  0.05943979  0.98945173  0.50545945    -0.06000
C2766       C  0.04901823  0.00245860  0.51506405     0.20900
C2767       C  0.07004142  0.97663860  0.51506525     0.19000
C2768       C  0.08057608  0.96392186  0.50528424    -0.17500
C2769       C  0.08051881  0.96390748  0.48617893    -0.19700
C2770       C  0.06976276  0.97647157  0.47648920     0.20500
C2771       C  0.06960837  0.97658224  0.45730556    -0.32700
C2772       C  0.05865461  0.98908759  0.44721759     0.01200
C2773       C  0.04896449  0.00228203  0.45756728    -0.24100
C2774       C  0.04918626  0.00254207  0.53413639    -0.28700
C2775       C  0.06000740  0.99010087  0.54417312     0.06900
C2776       C  0.07002083  0.97678627  0.53423293    -0.27300
H2777       H  0.03071465  0.02553179  0.51259982     0.11600
H2778       H  0.03068962  0.02547919  0.47923495     0.12700
H2779       H  0.08892739  0.95402796  0.51240723     0.11800
H2780       H  0.08882203  0.95399181  0.47898169     0.11100
H2781       H  0.07900797  0.96748883  0.45054818     0.16500
H2782       H  0.04188685  0.01332440  0.45111749     0.12400
H2783       H  0.04121305  0.01272748  0.54135256     0.15200
H2784       H  0.07779211  0.96633735  0.54110143     0.15000
C2785       C  0.85019282  0.94036097  0.57150488    -0.17900
C2786       C  0.86176801  0.95423501  0.56544690    -0.20000
C2787       C  0.87999731  0.95473436  0.57108662     0.20600
C2788       C  0.88659531  0.94133879  0.58314087    -0.03000
C2789       C  0.87493958  0.92712933  0.58909798    -0.06000
C2790       C  0.85669391  0.92663903  0.58316271     0.20900
C2791       C  0.88164272  0.91320129  0.60059054     0.19000
C2792       C  0.89979957  0.91403732  0.60651423    -0.17500
C2793       C  0.91124238  0.92833693  0.60089135    -0.19700
C2794       C  0.90486160  0.94197477  0.58900758     0.20500
C2795       C  0.91644870  0.95605542  0.58274243    -0.32700
C2796       C  0.91025254  0.96911458  0.56991010     0.01200
C2797       C  0.89174381  0.96826704  0.56457145    -0.24100
C2798       C  0.84540806  0.91211749  0.58843216    -0.28700
C2799       C  0.85214683  0.89764789  0.59913057     0.06900
C2800       C  0.87023630  0.89845120  0.60545041    -0.27300
H2801       H  0.83622652  0.94017818  0.56679826     0.11600
H2802       H  0.85649024  0.96450680  0.55621379     0.12700
H2803       H  0.90521655  0.90352693  0.61538444     0.11800
H2804       H  0.92520372  0.92853890  0.60559641     0.11100
H2805       H  0.93020523  0.95660338  0.58788116     0.16500
H2806       H  0.88649703  0.97808600  0.55486810     0.12400
H2807       H  0.83156322  0.91162621  0.58337410     0.15200
H2808       H  0.87557561  0.88736827  0.61366364     0.15000
C2809       C  0.86716453  0.04959885  0.55212517    -0.17900
C2810       C  0.87841093  0.03513355  0.54696187    -0.20000
C2811       C  0.88963767  0.02655791  0.55982727     0.20600
C2812       C  0.88936093  0.03240476  0.57812600    -0.03000
C2813       C  0.87819211  0.04730395  0.58332137    -0.06000
C2814       C  0.86709539  0.05585378  0.57019751     0.20900
C2815       C  0.87814497  0.05366036  0.60153451     0.19000
C2816       C  0.88892742  0.04452483  0.61447955    -0.17500
C2817       C  0.89959284  0.02935741  0.60940667    -0.19700
C2818       C  0.90001285  0.02324424  0.59120574     0.20500
C2819       C  0.91069965  0.00808039  0.58585074    -0.32700
C2820       C  0.91191225  0.00260238  0.56730641     0.01200
C2821       C  0.90085903  0.01204187  0.55458238    -0.24100
C2822       C  0.85620346  0.07066259  0.57521245    -0.28700
C2823       C  0.85637444  0.07760207  0.59310275     0.06900
C2824       C  0.86738937  0.06902465  0.60631733    -0.27300
H2825       H  0.85864075  0.05602200  0.54192226     0.11600
H2826       H  0.87832701  0.03064878  0.53286675     0.12700
H2827       H  0.88905679  0.04905422  0.62855292     0.11800
H2828       H  0.90766052  0.02251522  0.61970432     0.11100
H2829       H  0.91818598  0.00050652  0.59608942     0.16500
H2830       H  0.89993329  0.00755668  0.54056676     0.12400
H2831       H  0.84787596  0.07716081  0.56487747     0.15200
H2832       H  0.86754478  0.07422141  0.62016359     0.15000
C2833       C  0.00201722  0.95555359  0.55893532    -0.17900
C2834       C  0.98299858  0.95445444  0.55893824    -0.20000
C2835       C  0.97242632  0.96930342  0.56493449     0.20600
C2836       C  0.98115718  0.98509958  0.57165369    -0.03000
C2837       C  0.00043120  0.98606218  0.57201158    -0.06000
C2838       C  0.01084067  0.97141499  0.56519236     0.20900
C2839       C  0.00922446  0.00200903  0.57835655     0.19000
C2840       C  0.99860481  0.01679009  0.58445312    -0.17500
C2841       C  0.97956453  0.01598508  0.58374012    -0.19700
C2842       C  0.97068567  0.00027527  0.57716564     0.20500
C2843       C  0.95162353  0.99990587  0.57516975    -0.32700
C2844       C  0.94252031  0.98430011  0.56810925     0.01200
C2845       C  0.95335490  0.96892596  0.56345773    -0.24100
C2846       C  0.02982042  0.97313743  0.56398229    -0.28700
C2847       C  0.03910823  0.98897682  0.57029070     0.06900
C2848       C  0.02838744  0.00326879  0.57776035    -0.27300
H2849       H  0.00982779  0.94409283  0.55374578     0.11600
H2850       H  0.97655307  0.94217655  0.55374426     0.12700
H2851       H  0.00503385  0.02919964  0.58934716     0.11800
H2852       H  0.97177308  0.02780650  0.58808074     0.11100
H2853       H  0.94428830  0.01237829  0.57803858     0.16500
H2854       H  0.94690119  0.95698287  0.55752390     0.12400
H2855       H  0.03748574  0.96227088  0.55744753     0.15200
H2856       H  0.03464787  0.01594722  0.58202952     0.15000
C2857       C  0.90532663  0.90095640  0.41353768    -0.17900
C2858       C  0.91546357  0.91645406  0.41831345    -0.20000
C2859       C  0.91005141  0.93391743  0.41247158     0.20600
C2860       C  0.89456108  0.93570426  0.40134661    -0.03000
C2861       C  0.88430404  0.92006366  0.39649292    -0.06000
C2862       C  0.88960418  0.90264041  0.40281340     0.20900
C2863       C  0.86842798  0.92195324  0.38583310     0.19000
C2864       C  0.86334697  0.93935437  0.37958251    -0.17500
C2865       C  0.87356622  0.95480050  0.38431967    -0.19700
C2866       C  0.88900838  0.95315139  0.39547790     0.20500
C2867       C  0.89855075  0.96874659  0.40129884    -0.32700
C2868       C  0.91353761  0.96751569  0.41349796     0.01200
C2869       C  0.91947580  0.94962918  0.41817438    -0.24100
C2870       C  0.87874977  0.88732879  0.39885565    -0.28700
C2871       C  0.86245874  0.88922722  0.38894172     0.06900
C2872       C  0.85758569  0.90653921  0.38216460    -0.27300
H2873       H  0.90960701  0.88768267  0.41851351     0.11600
H2874       H  0.92735350  0.91481326  0.42688127     0.12700
H2875       H  0.85126575  0.94107163  0.37130484     0.11800
H2876       H  0.86913191  0.96811575  0.37959027     0.11100
H2877       H  0.89372066  0.98182078  0.39644842     0.16500
H2878       H  0.93095118  0.94799860  0.42731089     0.12400
H2879       H  0.88253893  0.87406801  0.40426908     0.15200
H2880       H  0.84504745  0.90811941  0.37455626     0.15000
C2881       C  0.89369475  0.05341884  0.37795482    -0.17900
C2882       C  0.90538935  0.03882744  0.38218990    -0.20000
C2883       C  0.90196636  0.02754572  0.39731420     0.20600
C2884       C  0.88641373  0.03089863  0.40806404    -0.03000
C2885       C  0.87447241  0.04547634  0.40366175    -0.06000
C2886       C  0.87820514  0.05694649  0.38864056     0.20900
C2887       C  0.85890429  0.04867332  0.41444546     0.19000
C2888       C  0.85524431  0.03720601  0.42932758    -0.17500
C2889       C  0.86701271  0.02281519  0.43363733    -0.19700
C2890       C  0.88268431  0.01962962  0.42316736     0.20500
C2891       C  0.89458347  0.00530708  0.42758568    -0.32700
C2892       C  0.91068517  0.00200679  0.41747079     0.01200
C2893       C  0.91374697  0.01297038  0.40181241    -0.24100
C2894       C  0.86660947  0.07191078  0.38485702    -0.28700
C2895       C  0.85133319  0.07549461  0.39594885     0.06900
C2896       C  0.84745703  0.06350817  0.41046445    -0.27300
H2897       H  0.89682492  0.06200638  0.36634860     0.11600
H2898       H  0.91723760  0.03647899  0.37371054     0.12700
H2899       H  0.84333556  0.03946113  0.43774698     0.11800
H2900       H  0.86390930  0.01423600  0.44526535     0.11100
H2901       H  0.89107316  0.99648668  0.43889732     0.16500
H2902       H  0.92513661  0.01003990  0.39291377     0.12400
H2903       H  0.86978684  0.08105987  0.37369020     0.15200
H2904       H  0.83576450  0.06606246  0.41911549     0.15000
C2905       C  0.00222786  0.95920384  0.40313139    -0.17900
C2906       C  0.98318824  0.95840138  0.40258719    -0.20000
C2907       C  0.97267300  0.97370727  0.40751364     0.20600
C2908       C  0.98149432  0.99008804  0.41229470    -0.03000
C2909       C  0.00071270  0.99086681  0.41293949    -0.06000
C2910       C  0.01112053  0.97531053  0.40867454     0.20900
C2911       C  0.00948136  0.00715837  0.41806906     0.19000
C2912       C  0.99903289  0.02288620  0.42150550    -0.17500
C2913       C  0.98001947  0.02214588  0.42077203    -0.19700
C2914       C  0.97112447  0.00564479  0.41666639     0.20500
C2915       C  0.95210508  0.00429815  0.41768669    -0.32700
C2916       C  0.94290456  0.98737522  0.41530246     0.01200
C2917       C  0.95357256  0.97264914  0.40841600    -0.24100
C2918       C  0.03015656  0.97585636  0.41060831    -0.28700
C2919       C  0.03919978  0.99130143  0.41825476     0.06900
C2920       C  0.02843859  0.00732212  0.42041112    -0.27300
H2921       H  0.00997652  0.94705638  0.39971734     0.11600
H2922       H  0.97669253  0.94564723  0.39877968     0.12700
H2923       H  0.00554122  0.03564255  0.42528150     0.11800
H2924       H  0.97226623  0.03434112  0.42400777     0.11100
H2925       H  0.94456668  0.01658292  0.42090977     0.16500
H2926       H  0.94754079  0.96002199  0.40401451     0.12400
H2927       H  0.03739540  0.96385043  0.40634748     0.15200
H2928       H  0.03466358  0.02013463  0.42431184     0.15000
C2929       C  0.90981553  0.95300263  0.50161628    -0.17900
C2930       C  0.90913218  0.95349653  0.48254291    -0.20000
C2931       C  0.91642653  0.96840768  0.47293501     0.20600
C2932       C  0.92474090  0.98273407  0.48265272    -0.03000
C2933       C  0.92509779  0.98244571  0.50193623    -0.06000
C2934       C  0.91747024  0.96758461  0.51146205     0.20900
C2935       C  0.93275929  0.99719487  0.51164608     0.19000
C2936       C  0.94021742  0.01198647  0.50203937    -0.17500
C2937       C  0.93977953  0.01228602  0.48297054    -0.19700
C2938       C  0.93197133  0.99774774  0.47316428     0.20500
C2939       C  0.93103886  0.99821990  0.45406420    -0.32700
C2940       C  0.92338371  0.98372531  0.44369085     0.01200
C2941       C  0.91515687  0.96933928  0.45383204    -0.24100
C2942       C  0.91713929  0.96775734  0.53062177    -0.28700
C2943       C  0.92365712  0.98302827  0.54061054     0.06900
C2944       C  0.93231938  0.99721221  0.53076523    -0.27300
H2945       H  0.90395301  0.94140972  0.50867877     0.11600
H2946       H  0.90281378  0.94223393  0.47530389     0.12700
H2947       H  0.94614076  0.02346258  0.50927827     0.11800
H2948       H  0.94544476  0.02397102  0.47588920     0.11100
H2949       H  0.93561995  0.01053155  0.44757876     0.16500
H2950       H  0.90686018  0.95909947  0.44734896     0.12400
H2951       H  0.91161634  0.95595789  0.53753797     0.15200
H2952       H  0.93796836  0.00877045  0.53811237     0.15000
C2953       C  0.60451144  0.08567390  0.95460545    -0.17900
C2954       C  0.60855062  0.09617647  0.93905633    -0.20000
C2955       C  0.59471861  0.10549070  0.92961172     0.20600
C2956       C  0.57662119  0.10390953  0.93587143    -0.03000
C2957       C  0.57255370  0.09317946  0.95141118    -0.06000
C2958       C  0.58653139  0.08413042  0.96099057     0.20900
C2959       C  0.55450078  0.09197557  0.95762641     0.19000
C2960       C  0.54060565  0.10121456  0.94830547    -0.17500
C2961       C  0.54458451  0.11174541  0.93299319    -0.19700
C2962       C  0.56253500  0.11328715  0.92678045     0.20500
C2963       C  0.56655218  0.12425708  0.91173635    -0.32700
C2964       C  0.58446970  0.12610789  0.90531892     0.01200
C2965       C  0.59856244  0.11650189  0.91420690    -0.24100
C2966       C  0.58228554  0.07402382  0.97689422    -0.28700
C2967       C  0.56410915  0.07240928  0.98319267     0.06900
C2968       C  0.55050784  0.08198929  0.97333335    -0.27300
H2969       H  0.61549083  0.07882727  0.96169775     0.11600
H2970       H  0.62254145  0.09715867  0.93452927     0.12700
H2971       H  0.52663587  0.10039650  0.95293949     0.11800
H2972       H  0.53362088  0.11883913  0.92610588     0.11100
H2973       H  0.55554544  0.13138200  0.90492894     0.16500
H2974       H  0.61241510  0.11778407  0.90932878     0.12400
H2975       H  0.59311621  0.06753908  0.98454003     0.15200
H2976       H  0.53667591  0.08272738  0.97822103     0.15000
C2977       C  0.59798063  0.07726416  0.05787243    -0.17900
C2978       C  0.60246666  0.08910427  0.07229432    -0.20000
C2979       C  0.59526529  0.10690915  0.07308905     0.20600
C2980       C  0.58363315  0.11286724  0.05898866    -0.03000
C2981       C  0.57898651  0.10084093  0.04451111    -0.06000
C2982       C  0.58607129  0.08289508  0.04397680     0.20900
C2983       C  0.56703339  0.10672176  0.03073469     0.19000
C2984       C  0.56005575  0.12460775  0.03126759    -0.17500
C2985       C  0.56464580  0.13648823  0.04552651    -0.19700
C2986       C  0.57630353  0.13071285  0.05953562     0.20500
C2987       C  0.58034676  0.14232489  0.07429008    -0.32700
C2988       C  0.59145940  0.13636930  0.08877230     0.01200
C2989       C  0.59909878  0.11867918  0.08790832    -0.24100
C2990       C  0.58083154  0.07078937  0.02984761    -0.28700
C2991       C  0.56782937  0.07607338  0.01659428     0.06900
C2992       C  0.56177553  0.09451219  0.01693605    -0.27300
H2993       H  0.60360415  0.06355641  0.05776563     0.11600
H2994       H  0.61144571  0.08424731  0.08294783     0.12700
H2995       H  0.55083075  0.12934301  0.02076609     0.11800
H2996       H  0.55887616  0.15013329  0.04571839     0.11100
H2997       H  0.57427714  0.15583806  0.07479243     0.16500
H2998       H  0.60758981  0.11388895  0.09899333     0.12400
H2999       H  0.58675055  0.05725636  0.02953434     0.15200
H3000       H  0.55210411  0.09915351  0.00681416     0.15000
C3001       C  0.36904660  0.09515960  0.94335396    -0.17900
C3002       C  0.37400989  0.08455212  0.95853664    -0.20000
C3003       C  0.39232155  0.08314186  0.96389123     0.20600
C3004       C  0.40565990  0.09266929  0.95390171    -0.03000
C3005       C  0.40067104  0.10348436  0.93876340    -0.06000
C3006       C  0.38228530  0.10467334  0.93329096     0.20900
C3007       C  0.41417145  0.11313420  0.92912077     0.19000
C3008       C  0.43239949  0.11201481  0.93452497    -0.17500
C3009       C  0.43729125  0.10138643  0.94945856    -0.19700
C3010       C  0.42403150  0.09167185  0.95917587     0.20500
C3011       C  0.42899047  0.08131308  0.97429556    -0.32700
C3012       C  0.41604886  0.07119693  0.98440842     0.01200
C3013       C  0.39755384  0.07260420  0.97912458    -0.24100
C3014       C  0.37762781  0.11527741  0.91785681    -0.28700
C3015       C  0.39122609  0.12481700  0.90820472     0.06900
C3016       C  0.40935269  0.12372395  0.91413182    -0.27300
H3017       H  0.35484981  0.09592138  0.93949085     0.11600
H3018       H  0.36351699  0.07740734  0.96606394     0.12700
H3019       H  0.44289197  0.11937440  0.92719266     0.11800
H3020       H  0.45147868  0.10076103  0.95341057     0.11100
H3021       H  0.44303569  0.08211989  0.97850094     0.16500
H3022       H  0.38725220  0.06563787  0.98708660     0.12400
H3023       H  0.36360357  0.11609607  0.91339789     0.15200
H3024       H  0.41997343  0.13091699  0.90680118     0.15000
C3025       C  0.37619460  0.08213924  0.07294146    -0.17900
C3026       C  0.38162140  0.07109114  0.05823763    -0.20000
C3027       C  0.39324584  0.07799316  0.04467356     0.20600
C3028       C  0.39885824  0.09641175  0.04563374    -0.03000
C3029       C  0.39302870  0.10768483  0.06020006    -0.06000
C3030       C  0.38199952  0.10041561  0.07418872     0.20900
C3031       C  0.39870903  0.12609680  0.06101604     0.19000
C3032       C  0.40984870  0.13318731  0.04720548    -0.17500
C3033       C  0.41582647  0.12196236  0.03298435    -0.19700
C3034       C  0.41059148  0.10352400  0.03223461     0.20500
C3035       C  0.41732623  0.09202559  0.01855381    -0.32700
C3036       C  0.41259738  0.07327468  0.01770006     0.01200
C3037       C  0.39964198  0.06671971  0.03042790    -0.24100
C3038       C  0.37750741  0.11139384  0.08938749    -0.28700
C3039       C  0.38368379  0.12961395  0.09050747     0.06900
C3040       C  0.39376020  0.13695667  0.07595228    -0.27300
H3041       H  0.36762544  0.07631541  0.08345315     0.11600
H3042       H  0.37709042  0.05699395  0.05772917     0.12700
H3043       H  0.41429510  0.14731573  0.04763178     0.11800
H3044       H  0.42476197  0.12764639  0.02269854     0.11100
H3045       H  0.42682726  0.09758275  0.00872129     0.16500
H3046       H  0.39457374  0.05287696  0.02959783     0.12400
H3047       H  0.36970425  0.10563522  0.10052384     0.15200
H3048       H  0.39861684  0.15094658  0.07666510     0.15000
C3049       C  0.50019975  0.04209069  0.97687145    -0.17900
C3050       C  0.48119879  0.04206991  0.97684484    -0.20000
C3051       C  0.47150770  0.05055803  0.99101208     0.20600
C3052       C  0.48100109  0.05909047  0.00535981    -0.03000
C3053       C  0.50020901  0.05916849  0.00535206    -0.06000
C3054       C  0.50980260  0.05064273  0.99104068     0.20900
C3055       C  0.50977684  0.06778774  0.01962153     0.19000
C3056       C  0.50003935  0.07595217  0.03397250    -0.17500
C3057       C  0.48099588  0.07582171  0.03401140    -0.19700
C3058       C  0.47133537  0.06756016  0.01967979     0.20500
C3059       C  0.45222281  0.06783576  0.01934138    -0.32700
C3060       C  0.44247384  0.06030876  0.00445570     0.01200
C3061       C  0.45249416  0.05092273  0.99084596    -0.24100
C3062       C  0.52881905  0.05117848  0.99085421    -0.28700
C3063       C  0.53869205  0.06100524  0.00423205     0.06900
C3064       C  0.52886861  0.06837289  0.01917503    -0.27300
H3065       H  0.50738740  0.03556576  0.96571207     0.11600
H3066       H  0.47407709  0.03551511  0.96567046     0.12700
H3067       H  0.50715151  0.08262493  0.04508049     0.11800
H3068       H  0.47382118  0.08237978  0.04515690     0.11100
H3069       H  0.44517711  0.07397588  0.03074586     0.16500
H3070       H  0.44534889  0.04457947  0.97956126     0.12400
H3071       H  0.53604029  0.04485863  0.97959500     0.15200
H3072       H  0.53584259  0.07468707  0.03052242     0.15000
C3073       C  0.54293436  0.87521561  0.93692384    -0.17900
C3074       C  0.53965132  0.88681062  0.95168080    -0.20000
C3075       C  0.55412248  0.89557313  0.96059176     0.20600
C3076       C  0.57203967  0.89293891  0.95441411    -0.03000
C3077       C  0.57539529  0.88114522  0.93943898    -0.06000
C3078       C  0.56074932  0.87213990  0.93085466     0.20900
C3079       C  0.59334799  0.87808673  0.93329683     0.19000
C3080       C  0.60773818  0.88711136  0.94216914    -0.17500
C3081       C  0.60439860  0.89867172  0.95716136    -0.19700
C3082       C  0.58658089  0.90157849  0.96353307     0.20500
C3083       C  0.58305261  0.91255761  0.97906105    -0.32700
C3084       C  0.56507067  0.91534703  0.98551503     0.01200
C3085       C  0.55083092  0.90639671  0.97594954    -0.24100
C3086       C  0.56409087  0.85999266  0.91649359    -0.28700
C3087       C  0.58188087  0.85661111  0.91028799     0.06900
C3088       C  0.59650841  0.86589788  0.91861110    -0.27300
H3089       H  0.53153945  0.86846315  0.93039887     0.11600
H3090       H  0.52576978  0.88875958  0.95626755     0.12700
H3091       H  0.62162427  0.88503835  0.93767111     0.11800
H3092       H  0.61579428  0.90521146  0.96388308     0.11100
H3093       H  0.59430490  0.91864453  0.98642989     0.16500
H3094       H  0.53700110  0.90669329  0.98087231     0.12400
H3095       H  0.55268283  0.85312103  0.91009524     0.15200
H3096       H  0.61025808  0.86346096  0.91386181     0.15000
C3097       C  0.60803201  0.89810099  0.07169924    -0.17900
C3098       C  0.60306531  0.90996065  0.05749290    -0.20000
C3099       C  0.58994966  0.90471731  0.04455004     0.20600
C3100       C  0.58244435  0.88697964  0.04554183    -0.03000
C3101       C  0.58769414  0.87488001  0.05967366    -0.06000
C3102       C  0.60019457  0.88062744  0.07312182     0.20900
C3103       C  0.57996025  0.85724324  0.06065311     0.19000
C3104       C  0.56735936  0.85170206  0.04739293    -0.17500
C3105       C  0.56207049  0.86370852  0.03355525    -0.19700
C3106       C  0.56936635  0.88143431  0.03266565     0.20500
C3107       C  0.56335611  0.89381846  0.01940973    -0.32700
C3108       C  0.56980869  0.91208488  0.01871872     0.01200
C3109       C  0.58389371  0.91701868  0.03097220    -0.24100
C3110       C  0.60411492  0.86904492  0.08800954    -0.28700
C3111       C  0.59598461  0.85163561  0.08930242     0.06900
C3112       C  0.58439376  0.84568334  0.07522870    -0.27300
H3113       H  0.61780068  0.90272571  0.08175287     0.11600
H3114       H  0.60914528  0.92344886  0.05692259     0.12700
H3115       H  0.56128960  0.83820522  0.04794605     0.11800
H3116       H  0.55203098  0.85922258  0.02370521     0.11100
H3117       H  0.55295057  0.88942371  0.00991285     0.16500
H3118       H  0.59006550  0.93042003  0.03026385     0.12400
H3119       H  0.61307359  0.87373396  0.09877772     0.15200
H3120       H  0.57794865  0.83237200  0.07613807     0.15000
C3121       C  0.57853530  0.00312760  0.97250074    -0.17900
C3122       C  0.57913399  0.98392611  0.97290094    -0.20000
C3123       C  0.57516242  0.97431789  0.98900866     0.20600
C3124       C  0.57089490  0.98428788  0.00492506    -0.03000
C3125       C  0.57020041  0.00372570  0.00449412    -0.06000
C3126       C  0.57391883  0.01320684  0.98818978     0.20900
C3127       C  0.56494786  0.01358072  0.02016052     0.19000
C3128       C  0.56086132  0.00401875  0.03624110    -0.17500
C3129       C  0.56166115  0.98487040  0.03670261    -0.19700
C3130       C  0.56645249  0.97485505  0.02105888     0.20500
C3131       C  0.56574156  0.95561411  0.02104104    -0.32700
C3132       C  0.56889772  0.94526082  0.00497634     0.01200
C3133       C  0.57429835  0.95499657  0.98912985    -0.24100
C3134       C  0.57214619  0.03246845  0.98758327    -0.28700
C3135       C  0.56645267  0.04266320  0.00309048     0.06900
C3136       C  0.56305317  0.03272667  0.01933339    -0.27300
H3137       H  0.58135142  0.01008938  0.95978023     0.11600
H3138       H  0.58235162  0.97657113  0.96046994     0.12700
H3139       H  0.55672946  0.01134737  0.04841697     0.11800
H3140       H  0.55809102  0.97786904  0.04920829     0.11100
H3141       H  0.56109500  0.94866018  0.03322535     0.16500
H3142       H  0.57627464  0.94789207  0.97635107     0.12400
H3143       H  0.57396623  0.03913676  0.97457799     0.15200
H3144       H  0.55789561  0.03992740  0.03119660     0.15000
C3145       C  0.37003464  0.88884412  0.94344345    -0.17900
C3146       C  0.37553886  0.89995200  0.95808049    -0.20000
C3147       C  0.39405713  0.90191079  0.96241523     0.20600
C3148       C  0.40713224  0.89271221  0.95176399    -0.03000
C3149       C  0.40158221  0.88134032  0.93711619    -0.06000
C3150       C  0.38292257  0.87932854  0.93291037     0.20900
C3151       C  0.41472435  0.87173165  0.92689873     0.19000
C3152       C  0.43323517  0.87382833  0.93105121    -0.17500
C3153       C  0.43869380  0.88506304  0.94548675    -0.19700
C3154       C  0.42574735  0.89443753  0.95603006     0.20500
C3155       C  0.43117039  0.90499439  0.97107917    -0.32700
C3156       C  0.41830411  0.91424799  0.98214859     0.01200
C3157       C  0.39967957  0.91250497  0.97746015    -0.24100
C3158       C  0.37754524  0.86764628  0.91847161    -0.28700
C3159       C  0.39064444  0.85764339  0.90857488     0.06900
C3160       C  0.40918027  0.85996431  0.91286246    -0.27300
H3161       H  0.35565921  0.88752081  0.94050617     0.11600
H3162       H  0.36526892  0.90691389  0.96611470     0.12700
H3163       H  0.44350372  0.86659507  0.92325655     0.11800
H3164       H  0.45306314  0.88624415  0.94854250     0.11100
H3165       H  0.44544782  0.90500148  0.97452046     0.16500
H3166       H  0.38950857  0.91906123  0.98595937     0.12400
H3167       H  0.36325993  0.86603427  0.91522268     0.15200
H3168       H  0.41942933  0.85258423  0.90515477     0.15000
C3169       C  0.41057108  0.85050003  0.04274877    -0.17900
C3170       C  0.41736230  0.86217141  0.02928729    -0.20000
C3171       C  0.41208783  0.88062112  0.02880312     0.20600
C3172       C  0.39950108  0.88727614  0.04168970    -0.03000
C3173       C  0.39285760  0.87555896  0.05550874    -0.06000
C3174       C  0.39856817  0.85713828  0.05609706     0.20900
C3175       C  0.38106116  0.88243614  0.06909490     0.19000
C3176       C  0.37515489  0.90068713  0.06803463    -0.17500
C3177       C  0.38134258  0.91214895  0.05402436    -0.19700
C3178       C  0.39384994  0.90569772  0.04101230     0.20500
C3179       C  0.40100838  0.91742128  0.02757871    -0.32700
C3180       C  0.41462813  0.91129509  0.01531091     0.01200
C3181       C  0.41950859  0.89256004  0.01587203    -0.24100
C3182       C  0.39292090  0.84590121  0.07050334    -0.28700
C3183       C  0.38233101  0.85298697  0.08486360     0.06900
C3184       C  0.37606762  0.87117243  0.08386508    -0.27300
H3185       H  0.41509161  0.83638729  0.04300529     0.11600
H3186       H  0.42694771  0.85681823  0.01939409     0.12700
H3187       H  0.36596388  0.90619150  0.07821241     0.11800
H3188       H  0.37672857  0.92622768  0.05367638     0.11100
H3189       H  0.39585946  0.93124680  0.02691430     0.16500
H3190       H  0.42948994  0.88734749  0.00629598     0.12400
H3191       H  0.39794156  0.83196519  0.07123049     0.15200
H3192       H  0.36788724  0.87671481  0.09486965     0.15000
C3193       C  0.42375953  0.00173217  0.03461906    -0.17900
C3194       C  0.42413309  0.98261758  0.03433621    -0.20000
C3195       C  0.41952035  0.97300754  0.01842303     0.20600
C3196       C  0.41398963  0.98271036  0.00280123    -0.03000
C3197       C  0.41358294  0.00207637  0.00309682    -0.06000
C3198       C  0.41874733  0.01156575  0.01900053     0.20900
C3199       C  0.40888033  0.01190507  0.98726030     0.19000
C3200       C  0.40426710  0.00222429  0.97134593    -0.17500
C3201       C  0.40467928  0.98304217  0.97105006    -0.19700
C3202       C  0.40970719  0.97313510  0.98666350     0.20500
C3203       C  0.41135379  0.95393153  0.98613456    -0.32700
C3204       C  0.41739520  0.94397033  0.00157689     0.01200
C3205       C  0.42119819  0.95393125  0.01769052    -0.24100
C3206       C  0.41973221  0.03069213  0.01882209    -0.28700
C3207       C  0.41552361  0.04092427  0.00302138     0.06900
C3208       C  0.40975566  0.03116901  0.98731397    -0.27300
H3209       H  0.42777489  0.00883931  0.04695802     0.11600
H3210       H  0.42842154  0.97535357  0.04646469     0.12700
H3211       H  0.40068147  0.00949720  0.95899823     0.11800
H3212       H  0.40139436  0.97596266  0.95848302     0.11100
H3213       H  0.40907846  0.94711492  0.97324934     0.16500
H3214       H  0.42641603  0.94675297  0.02951387     0.12400
H3215       H  0.42484626  0.03772215  0.03080348     0.15200
H3216       H  0.40723125  0.03823200  0.97463785     0.15000
C3217       C  0.50256749  0.94800897  0.97993309    -0.17900
C3218       C  0.48361530  0.94705701  0.97890950    -0.20000
C3219       C  0.47372884  0.93712876  0.99192321     0.20600
C3220       C  0.48294256  0.92872859  0.00651589    -0.03000
C3221       C  0.50211977  0.92961881  0.00750631    -0.06000
C3222       C  0.51193041  0.93898663  0.99394627     0.20900
C3223       C  0.51146770  0.92077774  0.02177795     0.19000
C3224       C  0.50145125  0.91192849  0.03548230    -0.17500
C3225       C  0.48242269  0.91116190  0.03457386    -0.19700
C3226       C  0.47305567  0.91917047  0.01990956     0.20500
C3227       C  0.45404620  0.91758275  0.01831797    -0.32700
C3228       C  0.44465339  0.92486528  0.00305780     0.01200
C3229       C  0.45484362  0.93520241  0.99034511    -0.24100
C3230       C  0.53093520  0.93843438  0.99404862    -0.28700
C3231       C  0.54060668  0.92791676  0.00703434     0.06900
C3232       C  0.53060863  0.92033324  0.02171820    -0.27300
H3233       H  0.50993414  0.95538324  0.96947107     0.11600
H3234       H  0.47671488  0.95378124  0.96771760     0.12700
H3235       H  0.50835064  0.90519759  0.04666958     0.11800
H3236       H  0.47505928  0.90392188  0.04512976     0.11100
H3237       H  0.44679185  0.91075489  0.02915298     0.16500
H3238       H  0.44794863  0.94151666  0.97890859     0.12400
H3239       H  0.53826717  0.94500471  0.98304567     0.15200
H3240       H  0.53745044  0.91361051  0.03289239     0.15000
C3241       C  0.43153145  0.04439555  0.62377758    -0.17900
C3242       C  0.44602993  0.04002958  0.61227454    -0.20000
C3243       C  0.45397700  0.05350705  0.60124649     0.20600
C3244       C  0.44727301  0.07154874  0.60178972    -0.03000
C3245       C  0.43232897  0.07591074  0.61317743    -0.06000
C3246       C  0.42457967  0.06226257  0.62428925     0.20900
C3247       C  0.42523014  0.09387873  0.61353261     0.19000
C3248       C  0.43344280  0.10735899  0.60264051    -0.17500
C3249       C  0.44864713  0.10314359  0.59179440    -0.19700
C3250       C  0.45570577  0.08526090  0.59127782     0.20500
C3251       C  0.47114365  0.08088212  0.58067023    -0.32700
C3252       C  0.47757742  0.06264246  0.57927884     0.01200
C3253       C  0.46874979  0.04918346  0.59001016    -0.24100
C3254       C  0.40995616  0.06661614  0.63570436    -0.28700
C3255       C  0.40246859  0.08434606  0.63600796    -0.05100
C3256       C  0.41012692  0.09796101  0.62478367    -0.27300
H3257       H  0.42570215  0.03376062  0.63223368     0.11600
H3258       H  0.45111444  0.02610896  0.61209976     0.12700
H3259       H  0.42824382  0.12123132  0.60267040     0.11800
H3260       H  0.45484604  0.11387688  0.58374587     0.11100
H3261       H  0.47815151  0.09164545  0.57334881     0.16500
H3262       H  0.47388995  0.03533540  0.59060327     0.12400
H3263       H  0.40410187  0.05594896  0.64411999     0.15200
H3264       H  0.40442921  0.11164069  0.62487542     0.15000
C3265       C  0.54277796  0.06194736  0.63956549    -0.17900
C3266       C  0.52809322  0.05738240  0.62838294    -0.20000
C3267       C  0.52660579  0.06482211  0.61082996     0.20600
C3268       C  0.53979670  0.07729110  0.60460302    -0.03000
C3269       C  0.55475238  0.08186296  0.61589940    -0.06000
C3270       C  0.55627201  0.07398306  0.63337017     0.20900
C3271       C  0.56834909  0.09394152  0.60959056     0.19000
C3272       C  0.56650304  0.10171036  0.59216079    -0.17500
C3273       C  0.55154038  0.09734111  0.58105528    -0.19700
C3274       C  0.53819155  0.08494634  0.58704441     0.20500
C3275       C  0.52353132  0.07978518  0.57568245    -0.32700
C3276       C  0.51092611  0.06618501  0.58123858     0.01200
C3277       C  0.51240340  0.05951320  0.59928707    -0.24100
C3278       C  0.57148177  0.07781406  0.64420700    -0.28700
C3279       C  0.58549753  0.08927425  0.63790215     0.06900
C3280       C  0.58368978  0.09760669  0.62064932    -0.27300
H3281       H  0.54373665  0.05581202  0.65297052     0.11600
H3282       H  0.51801523  0.04780984  0.63338140     0.12700
H3283       H  0.57673075  0.11104177  0.58703025     0.11800
H3284       H  0.55059663  0.10340961  0.56762252     0.11100
H3285       H  0.52229468  0.08625679  0.56250917     0.16500
H3286       H  0.50282327  0.04938700  0.60413691     0.12400
H3287       H  0.57266454  0.07133725  0.65744357     0.15200
H3288       H  0.59443830  0.10638590  0.61560540     0.15000
C3289       C  0.42806004  0.05181166  0.37850830    -0.17900
C3290       C  0.44249797  0.04694061  0.38979807    -0.20000
C3291       C  0.45089872  0.06008884  0.40090066     0.20600
C3292       C  0.44482628  0.07836060  0.40055288    -0.03000
C3293       C  0.43005959  0.08329576  0.38920195    -0.06000
C3294       C  0.42174325  0.06990306  0.37816564     0.20900
C3295       C  0.42369730  0.10154527  0.38879865     0.19000
C3296       C  0.43250166  0.11472239  0.39965869    -0.17500
C3297       C  0.44742739  0.10987568  0.41063975    -0.19700
C3298       C  0.45370813  0.09169243  0.41121582     0.20500
C3299       C  0.46888090  0.08663473  0.42191445    -0.32700
C3300       C  0.47489430  0.06819573  0.42277755     0.01200
C3301       C  0.46556573  0.05517471  0.41193843    -0.24100
C3302       C  0.40722097  0.07470534  0.36691205    -0.28700
C3303       C  0.40046975  0.09271039  0.36645647     0.06900
C3304       C  0.40873519  0.10616016  0.37752603    -0.27300
H3305       H  0.42180944  0.04139990  0.37004467     0.11600
H3306       H  0.44713950  0.03286087  0.38979629     0.12700
H3307       H  0.42793333  0.12881963  0.39956383     0.11800
H3308       H  0.45404475  0.12036486  0.41871224     0.11100
H3309       H  0.47624287  0.09706404  0.42940246     0.16500
H3310       H  0.47030488  0.04120722  0.41094022     0.12400
H3311       H  0.40093721  0.06416054  0.35861992     0.15200
H3312       H  0.40363795  0.12007430  0.37729434     0.15000
C3313       C  0.56087839  0.11039980  0.40682946    -0.17900
C3314       C  0.54690937  0.10489040  0.41866994    -0.20000
C3315       C  0.53379030  0.09210751  0.41298465     0.20600
C3316       C  0.53446780  0.08535809  0.39496105    -0.03000
C3317       C  0.54840704  0.09105622  0.38295775    -0.06000
C3318       C  0.56192694  0.10335848  0.38900844     0.20900
C3319       C  0.54917167  0.08387459  0.36510098     0.19000
C3320       C  0.53574822  0.07161957  0.35916381    -0.17500
C3321       C  0.52203278  0.06596770  0.37103658    -0.19700
C3322       C  0.52148554  0.07253714  0.38900750     0.20500
C3323       C  0.50843662  0.06602587  0.40119301    -0.32700
C3324       C  0.50789433  0.07185682  0.41959006     0.01200
C3325       C  0.52027763  0.08567844  0.42506271    -0.24100
C3326       C  0.57663849  0.10767171  0.37741582    -0.28700
C3327       C  0.57798191  0.09961184  0.35998882     0.06900
C3328       C  0.56380670  0.08832313  0.35374801    -0.27300
H3329       H  0.57106767  0.11990688  0.41173752     0.11600
H3330       H  0.54662214  0.11031736  0.43242540     0.12700
H3331       H  0.53612103  0.06603747  0.34546812     0.11800
H3332       H  0.51204949  0.05616891  0.36626286     0.11100
H3333       H  0.49894556  0.05574051  0.39646766     0.16500
H3334       H  0.51967107  0.09141855  0.43863951     0.12400
H3335       H  0.58751154  0.11638716  0.38233026     0.15200
H3336       H  0.56463392  0.08218144  0.34029798     0.15000
C3337       C  0.46426663  0.07888941  0.51122603    -0.17900
C3338       C  0.46398449  0.07975385  0.49213313    -0.20000
C3339       C  0.47964415  0.07562911  0.48192900     0.20600
C3340       C  0.49585990  0.07115080  0.49115246    -0.03000
C3341       C  0.49613722  0.07025861  0.51043689    -0.06000
C3342       C  0.48021172  0.07387623  0.52052104     0.20900
C3343       C  0.51208370  0.06473042  0.51951749     0.19000
C3344       C  0.52777421  0.06069419  0.50938809    -0.17500
C3345       C  0.52751417  0.06161056  0.49035734    -0.19700
C3346       C  0.51154857  0.06654552  0.48111988     0.20500
C3347       C  0.51078578  0.06586841  0.46204558    -0.32700
C3348       C  0.49450484  0.06952896  0.45243616     0.01200
C3349       C  0.47904239  0.07484168  0.46273590    -0.24100
C3350       C  0.48019373  0.07145387  0.53957498    -0.28700
C3351       C  0.49599739  0.06547678  0.54893142     0.06900
C3352       C  0.51188473  0.06237836  0.53846541    -0.27300
H3353       H  0.45186578  0.08172221  0.51870659     0.11600
H3354       H  0.45137108  0.08321345  0.48532984     0.12700
H3355       H  0.54014856  0.05639958  0.51616917     0.11800
H3356       H  0.53968787  0.05798814  0.48283778     0.11100
H3357       H  0.52263946  0.06114621  0.45459562     0.16500
H3358       H  0.46606347  0.07693248  0.45616726     0.12400
H3359       H  0.46739302  0.07291243  0.54665108     0.15200
H3360       H  0.52394662  0.05702490  0.54507851     0.15000
C3361       C  0.42971137  0.93774703  0.37637399    -0.17900
C3362       C  0.44402969  0.94209171  0.38804461    -0.20000
C3363       C  0.45214062  0.92851621  0.39881572     0.20600
C3364       C  0.44567389  0.91040567  0.39797567    -0.03000
C3365       C  0.43097284  0.90601161  0.38626078    -0.06000
C3366       C  0.42317021  0.91977165  0.37533117     0.20900
C3367       C  0.42428643  0.88791124  0.38525290     0.19000
C3368       C  0.43251748  0.87439168  0.39613207    -0.17500
C3369       C  0.44739401  0.87869274  0.40745065    -0.19700
C3370       C  0.45419713  0.89667374  0.40839502     0.20500
C3371       C  0.46953819  0.90113797  0.41920088    -0.32700
C3372       C  0.47598655  0.91940848  0.42052885     0.01200
C3373       C  0.46694297  0.93284498  0.40996271    -0.24100
C3374       C  0.40904705  0.91543346  0.36335981    -0.28700
C3375       C  0.40215604  0.89753405  0.36203849     0.06900
C3376       C  0.40970725  0.88376209  0.37324507    -0.27300
H3377       H  0.42380575  0.94846411  0.36806553     0.11600
H3378       H  0.44889920  0.95607999  0.38849580     0.12700
H3379       H  0.42763621  0.86041551  0.39568244     0.11800
H3380       H  0.45362955  0.86791421  0.41541664     0.11100
H3381       H  0.47660330  0.89039321  0.42649741     0.16500
H3382       H  0.47196412  0.94672488  0.40933015     0.12400
H3383       H  0.40328209  0.92624061  0.35505262     0.15200
H3384       H  0.40445502  0.86993332  0.37245783     0.15000
C3385       C  0.56497316  0.88014773  0.40776440    -0.17900
C3386       C  0.54996030  0.88461652  0.41874943    -0.20000
C3387       C  0.53659232  0.89687564  0.41253627     0.20600
C3388       C  0.53822117  0.90432155  0.39489563    -0.03000
C3389       C  0.55320871  0.89960313  0.38369659    -0.06000
C3390       C  0.56681738  0.88764660  0.39022741     0.20900
C3391       C  0.55470774  0.90713688  0.36607354     0.19000
C3392       C  0.54124841  0.91915044  0.35972211    -0.17500
C3393       C  0.52653921  0.92390069  0.37083721    -0.19700
C3394       C  0.52498472  0.91665618  0.38847264     0.20500
C3395       C  0.51069419  0.92203217  0.39992504    -0.32700
C3396       C  0.50933961  0.91570699  0.41811782     0.01200
C3397       C  0.52190424  0.90212442  0.42378994    -0.24100
C3398       C  0.58211412  0.88371051  0.37922481    -0.28700
C3399       C  0.58378221  0.89145361  0.36170517     0.06900
C3400       C  0.56980619  0.90287674  0.35520251    -0.27300
H3401       H  0.57521302  0.87090791  0.41304761     0.11600
H3402       H  0.54899115  0.87873577  0.43226482     0.12700
H3403       H  0.54221939  0.92507316  0.34622134     0.11800
H3404       H  0.51647357  0.93341737  0.36570482     0.11100
H3405       H  0.50102791  0.93201670  0.39493930     0.16500
H3406       H  0.52063998  0.89573544  0.43699802     0.12400
H3407       H  0.59279952  0.87490806  0.38437781     0.15200
H3408       H  0.57093582  0.90899302  0.34179062     0.15000
C3409       C  0.46892941  0.00279401  0.45238809    -0.17900
C3410       C  0.46910191  0.98366178  0.45221152    -0.20000
C3411       C  0.48321696  0.97411509  0.44350424     0.20600
C3412       C  0.49758122  0.98391137  0.43540052    -0.03000
C3413       C  0.49739971  0.00326594  0.43556434    -0.06000
C3414       C  0.48286492  0.01270026  0.44385033     0.20900
C3415       C  0.51161456  0.01313540  0.42725719     0.19000
C3416       C  0.52620404  0.00354220  0.41936752    -0.17500
C3417       C  0.52638563  0.98436024  0.41920952    -0.19700
C3418       C  0.51198308  0.97440178  0.42694609     0.20500
C3419       C  0.51158172  0.95516189  0.42605095    -0.32700
C3420       C  0.49647682  0.94514810  0.43277687     0.01200
C3421       C  0.48288270  0.95497851  0.44233758    -0.24100
C3422       C  0.48221251  0.03184233  0.44306998    -0.28700
C3423       C  0.49561477  0.04201549  0.43365448     0.06900
C3424       C  0.51084807  0.03236446  0.42666660    -0.27300
H3425       H  0.45770980  0.00984642  0.45892402     0.11600
H3426       H  0.45800822  0.97632666  0.45861230     0.12700
H3427       H  0.53732527  0.01087107  0.41301412     0.11800
H3428       H  0.53763957  0.97731740  0.41273187     0.11100
H3429       H  0.52306781  0.94823619  0.41996954     0.16500
H3430       H  0.47148450  0.94763739  0.44818018     0.12400
H3431       H  0.47075711  0.03892775  0.44914788     0.15200
H3432       H  0.52217180  0.03959661  0.42066108     0.15000
C3433       C  0.44460905  0.93788435  0.60890528    -0.17900
C3434       C  0.43025325  0.93347673  0.62056733    -0.20000
C3435       C  0.42455927  0.91526303  0.62245094     0.20600
C3436       C  0.43337658  0.90133866  0.61245870    -0.03000
C3437       C  0.44799418  0.90581938  0.60068383    -0.06000
C3438       C  0.45355475  0.92415751  0.59892266     0.20900
C3439       C  0.45723370  0.89196388  0.59098898     0.19000
C3440       C  0.45158399  0.87370596  0.59306766    -0.17500
C3441       C  0.43689637  0.86927731  0.60450944    -0.19700
C3442       C  0.42764715  0.88298459  0.61429282     0.20500
C3443       C  0.41280644  0.87875053  0.62582979    -0.32700
C3444       C  0.40399865  0.89265614  0.63585191     0.01200
C3445       C  0.41015114  0.91081540  0.63412961    -0.24100
C3446       C  0.46825880  0.92855431  0.58762116    -0.28700
C3447       C  0.47780236  0.91498153  0.57757705     0.06900
C3448       C  0.47211911  0.89657741  0.57969743    -0.27300
H3449       H  0.44876936  0.95205881  0.60775102     0.11600
H3450       H  0.42360181  0.94433602  0.62813470     0.12700
H3451       H  0.45851792  0.86281819  0.58580925     0.11800
H3452       H  0.43281801  0.85509274  0.60575875     0.11100
H3453       H  0.40819497  0.86472639  0.62707656     0.16500
H3454       H  0.40340923  0.92167696  0.64163432     0.12400
H3455       H  0.47275132  0.94262209  0.58769963     0.15200
H3456       H  0.47958581  0.88581589  0.57277905     0.15000
C3457       C  0.56429182  0.87337002  0.59355440    -0.17900
C3458       C  0.55010193  0.87846395  0.58177188    -0.20000
C3459       C  0.53728928  0.89176041  0.58703689     0.20600
C3460       C  0.53866743  0.89964016  0.60456730    -0.03000
C3461       C  0.55288237  0.89437714  0.61654063    -0.06000
C3462       C  0.56592259  0.88134126  0.61094285     0.20900
C3463       C  0.55421066  0.90244065  0.63399111     0.19000
C3464       C  0.54126286  0.91547250  0.63942504    -0.17500
C3465       C  0.52727916  0.92067624  0.62759980    -0.19700
C3466       C  0.52595250  0.91292990  0.61012166     0.20500
C3467       C  0.51230289  0.91857952  0.59805404    -0.32700
C3468       C  0.51103974  0.91158232  0.58005984     0.01200
C3469       C  0.52333099  0.89747590  0.57503608    -0.24100
C3470       C  0.58053301  0.87686731  0.62265443    -0.28700
C3471       C  0.58217637  0.88521856  0.63994663     0.06900
C3472       C  0.56868549  0.89771521  0.64556218    -0.27300
H3473       H  0.57410366  0.86329166  0.58898204     0.11600
H3474       H  0.54931748  0.87217778  0.56840342     0.12700
H3475       H  0.54207235  0.92181702  0.65276691     0.11800
H3476       H  0.51758835  0.93092095  0.63207193     0.11100
H3477       H  0.50288281  0.92908672  0.60248676     0.16500
H3478       H  0.52224196  0.89090468  0.56186470     0.12400
H3479       H  0.59083727  0.86726386  0.61813920     0.15200
H3480       H  0.56978399  0.90431582  0.65876836     0.15000
C3481       C  0.52908982  0.99834900  0.57698075    -0.17900
C3482       C  0.52920302  0.97920990  0.57661359    -0.20000
C3483       C  0.51430689  0.96951576  0.56955571     0.20600
C3484       C  0.49957157  0.97920864  0.56198424    -0.03000
C3485       C  0.49944879  0.99854097  0.56236816    -0.06000
C3486       C  0.51408307  0.00812749  0.57028445     0.20900
C3487       C  0.48451989  0.00822695  0.55520471     0.19000
C3488       C  0.47021013  0.99855634  0.54695761    -0.17500
C3489       C  0.47034560  0.97939707  0.54655300    -0.19700
C3490       C  0.48478004  0.96960932  0.55441497     0.20500
C3491       C  0.48432896  0.95045014  0.55549328    -0.32700
C3492       C  0.49810732  0.94056351  0.56474168     0.01200
C3493       C  0.51369074  0.95035301  0.57050656    -0.24100
C3494       C  0.51332541  0.02726129  0.57180254    -0.28700
C3495       C  0.49773681  0.03712531  0.56617134     0.06900
C3496       C  0.48387735  0.02734037  0.55692879    -0.27300
H3497       H  0.54055207  0.00549271  0.58294091     0.11600
H3498       H  0.54074086  0.97198411  0.58231826     0.12700
H3499       H  0.45870348  0.00579489  0.54121141     0.11800
H3500       H  0.45893117  0.97223442  0.54052271     0.11100
H3501       H  0.47264705  0.94320489  0.55010892     0.16500
H3502       H  0.52536652  0.94327683  0.57601475     0.12400
H3503       H  0.52495621  0.03425489  0.57750663     0.15200
H3504       H  0.47213532  0.03465592  0.55177549     0.15000
C3505       C  0.52809516  0.92045666  0.48924444    -0.17900
C3506       C  0.52849389  0.91915636  0.50825720    -0.20000
C3507       C  0.51271083  0.91465335  0.51802654     0.20600
C3508       C  0.49654626  0.91072073  0.50849947    -0.03000
C3509       C  0.49617817  0.91190871  0.48919289    -0.06000
C3510       C  0.51193236  0.91716887  0.47962651     0.20900
C3511       C  0.47984824  0.90884687  0.47959510     0.19000
C3512       C  0.46409201  0.90423131  0.48942933    -0.17500
C3513       C  0.46442659  0.90317427  0.50854472    -0.19700
C3514       C  0.48053960  0.90665388  0.51827410     0.20500
C3515       C  0.48062565  0.90730456  0.53753934    -0.32700
C3516       C  0.49654408  0.91224606  0.54734273     0.01200
C3517       C  0.51261581  0.91526646  0.53714724    -0.24100
C3518       C  0.51113716  0.91992671  0.46073001    -0.28700
C3519       C  0.49495889  0.91702216  0.45067340     0.06900
C3520       C  0.47932598  0.91130237  0.46049746    -0.27300
H3521       H  0.54035511  0.92445393  0.48208582     0.11600
H3522       H  0.54104578  0.92222643  0.51536847     0.12700
H3523       H  0.45137212  0.90185518  0.48236338     0.11800
H3524       H  0.45194372  0.90006138  0.51574743     0.11100
H3525       H  0.46784125  0.90554986  0.54460001     0.16500
H3526       H  0.52482180  0.91972305  0.54414772     0.12400
H3527       H  0.52307229  0.92516530  0.45380470     0.15200
H3528       H  0.46635330  0.90999173  0.45371184     0.15000
C3529       C  0.34661656  0.45607259  0.06579712    -0.17900
C3530       C  0.33525163  0.44193980  0.07166503    -0.20000
C3531       C  0.34225976  0.42744089  0.08202583     0.20600
C3532       C  0.36081679  0.42739718  0.08689588    -0.03000
C3533       C  0.37225038  0.44188147  0.08119945    -0.06000
C3534       C  0.36514108  0.45606598  0.07037694     0.20900
C3535       C  0.39077974  0.44205275  0.08614518     0.19000
C3536       C  0.39769885  0.42763733  0.09674727    -0.17500
C3537       C  0.38647476  0.41304973  0.10203689    -0.19700
C3538       C  0.36800784  0.41272967  0.09711781     0.20500
C3539       C  0.35670096  0.39786354  0.10183057    -0.32700
C3540       C  0.33823847  0.39766886  0.09664513     0.01200
C3541       C  0.33110908  0.41275678  0.08711737    -0.24100
C3542       C  0.37666751  0.46987454  0.06400964    -0.28700
C3543       C  0.39541677  0.47024933  0.06842939     0.06900
C3544       C  0.40209429  0.45646474  0.08024220    -0.27300
H3545       H  0.34093453  0.46695320  0.05755707     0.11600
H3546       H  0.32102636  0.44218859  0.06782023     0.12700
H3547       H  0.41189835  0.42747367  0.10069377     0.11800
H3548       H  0.39227332  0.40196183  0.10991240     0.11100
H3549       H  0.36235202  0.38628896  0.10911051     0.16500
H3550       H  0.31696575  0.41274396  0.08294856     0.12400
H3551       H  0.37106126  0.48031452  0.05517819     0.15200
H3552       H  0.41603785  0.45662794  0.08484559     0.15000
C3553       C  0.35623382  0.55473136  0.05330298    -0.17900
C3554       C  0.36657017  0.53979982  0.04751037    -0.20000
C3555       C  0.37677344  0.52962783  0.06008143     0.20600
C3556       C  0.37646282  0.53443502  0.07868037    -0.03000
C3557       C  0.36609026  0.54967610  0.08455664    -0.06000
C3558       C  0.35596222  0.55978635  0.07175541     0.20900
C3559       C  0.36580547  0.55476223  0.10316071     0.19000
C3560       C  0.37573151  0.54421723  0.11571919    -0.17500
C3561       C  0.38573135  0.52886711  0.10991734    -0.19700
C3562       C  0.38623600  0.52387374  0.09139565     0.20500
C3563       C  0.39617938  0.50847370  0.08537667    -0.32700
C3564       C  0.39734302  0.50389325  0.06660792     0.01200
C3565       C  0.38701315  0.51458480  0.05424854    -0.24100
C3566       C  0.34573068  0.57484223  0.07751788    -0.28700
C3567       C  0.34548776  0.58036841  0.09592160     0.06900
C3568       C  0.35561557  0.57024846  0.10875775    -0.27300
H3569       H  0.34848075  0.56237336  0.04331917     0.11600
H3570       H  0.36657951  0.53620630  0.03316848     0.12700
H3571       H  0.37569798  0.54778723  0.13006447     0.11800
H3572       H  0.39315262  0.52094672  0.11992801     0.11100
H3573       H  0.40315796  0.50000936  0.09527689     0.16500
H3574       H  0.38598718  0.51087867  0.04002633     0.12400
H3575       H  0.33810236  0.58250937  0.06744100     0.15200
H3576       H  0.35550581  0.57434348  0.12296506     0.15000
C3577       C  0.58326894  0.54346251  0.05178535    -0.17900
C3578       C  0.59559976  0.55684849  0.05727709    -0.20000
C3579       C  0.59778231  0.56097070  0.07580710     0.20600
C3580       C  0.58716476  0.55185740  0.08896691    -0.03000
C3581       C  0.57489394  0.53800512  0.08339310    -0.06000
C3582       C  0.57309708  0.53377362  0.06474808     0.20900
C3583       C  0.56501615  0.52795797  0.09643726     0.19000
C3584       C  0.56684910  0.53257744  0.11498760    -0.17500
C3585       C  0.57864694  0.54670400  0.12050817    -0.19700
C3586       C  0.58912518  0.55629929  0.10762961     0.20500
C3587       C  0.60167192  0.57004518  0.11293579    -0.32700
C3588       C  0.61265968  0.57870726  0.09973696     0.01200
C3589       C  0.61055441  0.57398294  0.08129623    -0.24100
C3590       C  0.56196456  0.51930151  0.05924199    -0.28700
C3591       C  0.55260936  0.50821788  0.07201145     0.06900
C3592       C  0.55416456  0.51303397  0.09072990    -0.27300
H3593       H  0.58202479  0.54036777  0.03738045     0.11600
H3594       H  0.60357011  0.56386852  0.04701734     0.12700
H3595       H  0.55931074  0.52512453  0.12526210     0.11800
H3596       H  0.57984731  0.54986381  0.13489681     0.11100
H3597       H  0.60318580  0.57365972  0.12719315     0.16500
H3598       H  0.61872181  0.58079561  0.07102490     0.12400
H3599       H  0.56217708  0.51593346  0.04491945     0.15200
H3600       H  0.54754546  0.50458855  0.10088719     0.15000
C3601       C  0.61985958  0.45293312  0.08092658    -0.17900
C3602       C  0.60731801  0.46558479  0.07414839    -0.20000
C3603       C  0.58874656  0.46387709  0.07822131     0.20600
C3604       C  0.58272296  0.44940864  0.08930473    -0.03000
C3605       C  0.59536965  0.43641893  0.09593009    -0.06000
C3606       C  0.61401414  0.43823319  0.09172046     0.20900
C3607       C  0.58931742  0.42142988  0.10640317     0.19000
C3608       C  0.57073116  0.41989984  0.11057051    -0.17500
C3609       C  0.55826945  0.43302852  0.10436452    -0.19700
C3610       C  0.56408158  0.44779218  0.09359002     0.20500
C3611       C  0.55157686  0.46080629  0.08689852    -0.32700
C3612       C  0.55729317  0.47495170  0.07504059     0.01200
C3613       C  0.57612840  0.47628088  0.07112949    -0.24100
C3614       C  0.62641735  0.42499072  0.09781312    -0.28700
C3615       C  0.62043302  0.40953480  0.10753814     0.06900
C3616       C  0.60186606  0.40798729  0.11201874    -0.27300
H3617       H  0.63410433  0.45448785  0.07748736     0.11600
H3618       H  0.61214459  0.47668066  0.06564294     0.12700
H3619       H  0.56580480  0.40848957  0.11857928     0.11800
H3620       H  0.54401767  0.43146996  0.10777335     0.11100
H3621       H  0.53748933  0.45962162  0.09090112     0.16500
H3622       H  0.58097615  0.48697226  0.06214644     0.12400
H3623       H  0.64062054  0.42618435  0.09402791     0.15200
H3624       H  0.59710931  0.39605080  0.11935702     0.15000
C3625       C  0.46483591  0.51522190  0.08431634    -0.17900
C3626       C  0.48383957  0.51551143  0.08558544    -0.20000
C3627       C  0.49423829  0.50061239  0.07939558     0.20600
C3628       C  0.48528947  0.48502132  0.07247252    -0.03000
C3629       C  0.46606129  0.48474562  0.07114927    -0.06000
C3630       C  0.45581507  0.50002128  0.07683879     0.20900
C3631       C  0.45719791  0.46955412  0.06333849     0.19000
C3632       C  0.46755241  0.45455462  0.05733837    -0.17500
C3633       C  0.48654510  0.45479431  0.05871078    -0.19700
C3634       C  0.49555172  0.47006654  0.06604806     0.20500
C3635       C  0.51462718  0.47101401  0.06609692    -0.32700
C3636       C  0.52395736  0.48699299  0.07186139     0.01200
C3637       C  0.51337041  0.50154356  0.07902960    -0.24100
C3638       C  0.43684662  0.50023446  0.07427594    -0.28700
C3639       C  0.42760676  0.48516553  0.06633729     0.06900
C3640       C  0.43823337  0.46986216  0.06102185    -0.27300
H3641       H  0.45720927  0.52708377  0.08883417     0.11600
H3642       H  0.49043151  0.52761243  0.09100643     0.12700
H3643       H  0.46097962  0.44275646  0.05126750     0.11800
H3644       H  0.49422088  0.44319419  0.05362350     0.11100
H3645       H  0.52231396  0.45977688  0.06024279     0.16500
H3646       H  0.51965879  0.51424774  0.08312190     0.12400
H3647       H  0.42971427  0.51271276  0.07757613     0.15200
H3648       H  0.43167668  0.45837495  0.05434886     0.15000
C3649       C  0.56247414  0.54140162  0.88909023    -0.17900
C3650       C  0.57408997  0.55614620  0.88536264    -0.20000
C3651       C  0.58971305  0.55912255  0.89597651     0.20600
C3652       C  0.59351729  0.54715259  0.91058644    -0.03000
C3653       C  0.58153401  0.53258511  0.91463175    -0.06000
C3654       C  0.56604285  0.52956551  0.90373801     0.20900
C3655       C  0.58524234  0.52089804  0.92941625     0.19000
C3656       C  0.60098701  0.52360617  0.93987516    -0.17500
C3657       C  0.61293201  0.53787613  0.93577839    -0.19700
C3658       C  0.60926828  0.54976008  0.92123417     0.20500
C3659       C  0.62093732  0.56439522  0.91741065    -0.32700
C3660       C  0.61701927  0.57679684  0.90328568     0.01200
C3661       C  0.60146120  0.57395046  0.89244686    -0.24100
C3662       C  0.55451678  0.51468207  0.90753672    -0.28700
C3663       C  0.55744672  0.50336667  0.92295454     0.06900
C3664       C  0.57331042  0.50655148  0.93344058    -0.27300
H3665       H  0.55059876  0.53934647  0.88058993     0.11600
H3666       H  0.57089211  0.56517649  0.87411210     0.12700
H3667       H  0.60407343  0.51467307  0.95124047     0.11800
H3668       H  0.62497914  0.53970758  0.94408904     0.11100
H3669       H  0.63284857  0.56645981  0.92587846     0.16500
H3670       H  0.59826761  0.58349289  0.88161294     0.12400
H3671       H  0.54347405  0.51179925  0.89822202     0.15200
H3672       H  0.57676455  0.49745553  0.94454079     0.15000
C3673       C  0.56623666  0.40256033  0.91621707    -0.17900
C3674       C  0.55549892  0.41759192  0.92133824    -0.20000
C3675       C  0.56072543  0.43547694  0.91667698     0.20600
C3676       C  0.57664100  0.43812003  0.90631439    -0.03000
C3677       C  0.58755677  0.42298475  0.90123025    -0.06000
C3678       C  0.58246292  0.40513610  0.90641969     0.20900
C3679       C  0.60390779  0.42581520  0.89152622     0.19000
C3680       C  0.60886348  0.44360958  0.88644458    -0.17500
C3681       C  0.59795671  0.45851694  0.89128515    -0.19700
C3682       C  0.58195912  0.45592623  0.90142738     0.20500
C3683       C  0.57155051  0.47097122  0.90709106    -0.32700
C3684       C  0.55604600  0.46894228  0.91850991     0.01200
C3685       C  0.55065101  0.45075130  0.92268834    -0.24100
C3686       C  0.59409908  0.39034576  0.90245281    -0.28700
C3687       C  0.61093223  0.39325449  0.89368036     0.06900
C3688       C  0.61543181  0.41095520  0.88777677    -0.27300
H3689       H  0.56206208  0.38895344  0.92029326     0.11600
H3690       H  0.54325963  0.41524439  0.92922310     0.12700
H3691       H  0.62135330  0.44604263  0.87898971     0.11800
H3692       H  0.60226039  0.47214999  0.88742157     0.11100
H3693       H  0.57610515  0.48428816  0.90267417     0.16500
H3694       H  0.53888712  0.44854580  0.93132786     0.12400
H3695       H  0.59053655  0.37675561  0.90714402     0.15200
H3696       H  0.62834152  0.41332415  0.88103723     0.15000
C3697       C  0.52345645  0.51204852  0.00569026    -0.17900
C3698       C  0.52388081  0.51174882  0.98664882    -0.20000
C3699       C  0.53371986  0.49815287  0.97732600     0.20600
C3700       C  0.54300384  0.48465593  0.98722554    -0.03000
C3701       C  0.54282469  0.48511264  0.00649394    -0.06000
C3702       C  0.53305540  0.49890093  0.01572599     0.20900
C3703       C  0.55263955  0.47196477  0.01647069     0.19000
C3704       C  0.56235297  0.45832464  0.00708901    -0.17500
C3705       C  0.56263608  0.45798608  0.98799389    -0.19700
C3706       C  0.55305690  0.47117198  0.97791010     0.20500
C3707       C  0.55378388  0.47133167  0.95872795    -0.32700
C3708       C  0.54418203  0.48457942  0.94826571     0.01200
C3709       C  0.53475110  0.49825510  0.95828283    -0.24100
C3710       C  0.53340380  0.49963321  0.03480185    -0.28700
C3711       C  0.54393744  0.48718046  0.04511948     0.06900
C3712       C  0.55287451  0.47284122  0.03560412    -0.27300
H3713       H  0.51587682  0.52275119  0.01256381     0.11600
H3714       H  0.51658692  0.52223831  0.97920193     0.12700
H3715       H  0.56998279  0.44807312  0.01452145     0.11800
H3716       H  0.57045532  0.44746747  0.98111323     0.11100
H3717       H  0.56287531  0.46167898  0.95234220     0.16500
H3718       H  0.52876327  0.50980695  0.95169555     0.12400
H3719       H  0.52599402  0.51041149  0.04176046     0.15200
H3720       H  0.56006644  0.46220089  0.04283742     0.15000
C3721       C  0.35028404  0.44105152  0.87910672    -0.17900
C3722       C  0.36036651  0.45671303  0.88348036    -0.20000
C3723       C  0.37614912  0.45537749  0.89419634     0.20600
C3724       C  0.38223713  0.43802828  0.89984754    -0.03000
C3725       C  0.37230479  0.42216563  0.89508740    -0.06000
C3726       C  0.35598153  0.42373158  0.88508321     0.20900
C3727       C  0.37835243  0.40482467  0.90095453     0.19000
C3728       C  0.39447184  0.40344243  0.91109426    -0.17500
C3729       C  0.40411387  0.41917747  0.91604032    -0.19700
C3730       C  0.39791157  0.43653857  0.91075221     0.20500
C3731       C  0.40673183  0.45241523  0.91682071    -0.32700
C3732       C  0.40043357  0.47015457  0.91212799     0.01200
C3733       C  0.38550706  0.47115784  0.89984747    -0.24100
C3734       C  0.34534847  0.40805950  0.88184563    -0.28700
C3735       C  0.35098390  0.39082239  0.88827771     0.06900
C3736       C  0.36780036  0.38926495  0.89727793    -0.27300
H3737       H  0.33786130  0.44252751  0.87130418     0.11600
H3738       H  0.35550207  0.46993928  0.87894420     0.12700
H3739       H  0.39934860  0.39022600  0.91564803     0.11800
H3740       H  0.41623697  0.41778669  0.92431766     0.11100
H3741       H  0.41824126  0.45104788  0.92595962     0.16500
H3742       H  0.38057210  0.48415992  0.89492855     0.12400
H3743       H  0.33242707  0.40936515  0.87484780     0.15200
H3744       H  0.37222653  0.37605690  0.90231960     0.15000
C3745       C  0.34074471  0.53808671  0.92629967    -0.17900
C3746       C  0.35219931  0.52329416  0.93011112    -0.20000
C3747       C  0.36882243  0.52133839  0.92086430     0.20600
C3748       C  0.37382713  0.53418280  0.90750650    -0.03000
C3749       C  0.36222391  0.54915728  0.90365044    -0.06000
C3750       C  0.34568363  0.55115914  0.91321756     0.20900
C3751       C  0.36729350  0.56224828  0.89046852     0.19000
C3752       C  0.38372330  0.55994378  0.88094608    -0.17500
C3753       C  0.39510560  0.54497991  0.88461713    -0.19700
C3754       C  0.39038461  0.53208565  0.89799122     0.20500
C3755       C  0.40190340  0.51717471  0.90200165    -0.32700
C3756       C  0.39748488  0.50460879  0.91599458     0.01200
C3757       C  0.38046732  0.50671584  0.92487828    -0.24100
C3758       C  0.33460735  0.56644490  0.90991064    -0.28700
C3759       C  0.33988256  0.58002487  0.89737254     0.06900
C3760       C  0.35609418  0.57761757  0.88740340    -0.27300
H3761       H  0.32806014  0.53940280  0.93378218     0.11600
H3762       H  0.34815788  0.51353746  0.94033003     0.12700
H3763       H  0.38784902  0.56980254  0.87074555     0.11800
H3764       H  0.40773996  0.54361935  0.87711446     0.11100
H3765       H  0.41411423  0.51532736  0.89398839     0.16500
H3766       H  0.37617584  0.49683309  0.93483283     0.12400
H3767       H  0.32214140  0.56810691  0.91766823     0.15200
H3768       H  0.36027360  0.58796892  0.87770449     0.15000
C3769       C  0.42488165  0.51476062  0.98208465    -0.17900
C3770       C  0.42523671  0.51415357  0.00113714    -0.20000
C3771       C  0.41743802  0.49936438  0.01046871     0.20600
C3772       C  0.40932442  0.48503434  0.00051698    -0.03000
C3773       C  0.40924131  0.48552601  0.98125413    -0.06000
C3774       C  0.41697829  0.50045038  0.97203532     0.20900
C3775       C  0.40083582  0.47144374  0.97127062     0.19000
C3776       C  0.39268855  0.45681422  0.98061206    -0.17500
C3777       C  0.39295281  0.45619717  0.99968447    -0.19700
C3778       C  0.40112106  0.47031419  0.00977646     0.20500
C3779       C  0.40087157  0.47012186  0.02892280    -0.32700
C3780       C  0.40816556  0.48483892  0.03917793     0.01200
C3781       C  0.41720205  0.49894510  0.02956571    -0.24100
C3782       C  0.41655048  0.50101010  0.95294138    -0.28700
C3783       C  0.40934710  0.48647942  0.94232314     0.06900
C3784       C  0.40046389  0.47225666  0.95214026    -0.27300
H3785       H  0.43086852  0.52640580  0.97520170     0.11600
H3786       H  0.43142093  0.52535483  0.00857736     0.12700
H3787       H  0.38614964  0.44583995  0.97317702     0.11800
H3788       H  0.38652954  0.44476186  0.00655829     0.11100
H3789       H  0.39490576  0.45838742  0.03562123     0.16500
H3790       H  0.42335392  0.51010669  0.03710945     0.12400
H3791       H  0.42115985  0.51339122  0.94667420     0.15200
H3792       H  0.39238027  0.46208186  0.94533531     0.15000
C3793       C  0.48773504  0.52162430  0.92279055    -0.17900
C3794       C  0.46871104  0.52192391  0.92216584    -0.20000
C3795       C  0.45897002  0.50617124  0.91717513     0.20600
C3796       C  0.46853158  0.49031734  0.91201269    -0.03000
C3797       C  0.48773286  0.48992178  0.91290895    -0.06000
C3798       C  0.49731207  0.50551085  0.91862211     0.20900
C3799       C  0.49730991  0.47389828  0.90826444     0.19000
C3800       C  0.48761191  0.45867803  0.90172928    -0.17500
C3801       C  0.46859694  0.45919628  0.90049577    -0.19700
C3802       C  0.45890818  0.47485240  0.90601163     0.20500
C3803       C  0.43978836  0.47500900  0.90623738    -0.32700
C3804       C  0.42982926  0.48963568  0.91433558     0.01200
C3805       C  0.43988196  0.50582610  0.91795297    -0.24100
C3806       C  0.51620830  0.50457612  0.92081674    -0.28700
C3807       C  0.52597338  0.48789367  0.91885163     0.06900
C3808       C  0.51627296  0.47309236  0.91087649    -0.27300
H3809       H  0.49492140  0.53381958  0.92712558     0.11600
H3810       H  0.46161158  0.53433598  0.92604020     0.12700
H3811       H  0.49468829  0.44622712  0.89795455     0.11800
H3812       H  0.46143652  0.44712163  0.89579171     0.11100
H3813       H  0.43314276  0.46329956  0.90039214     0.16500
H3814       H  0.43298400  0.51837148  0.92149060     0.12400
H3815       H  0.52316202  0.51700873  0.92469965     0.15200
H3816       H  0.52295515  0.46063306  0.90692134     0.15000
C3817       C  0.10633893  0.36812386  0.46083883    -0.17900
C3818       C  0.10111031  0.37876973  0.47582668    -0.20000
C3819       C  0.08869416  0.39322613  0.47368299     0.20600
C3820       C  0.08214730  0.39752870  0.45620527    -0.03000
C3821       C  0.08772478  0.38704339  0.44099172    -0.06000
C3822       C  0.09951357  0.37197178  0.44340160     0.20900
C3823       C  0.08096868  0.39122931  0.42350288     0.19000
C3824       C  0.06918263  0.40619366  0.42130264    -0.17500
C3825       C  0.06357487  0.41648249  0.43641999    -0.19700
C3826       C  0.06969901  0.41201222  0.45397878     0.20500
C3827       C  0.06290733  0.42119099  0.46938955    -0.32700
C3828       C  0.06782470  0.41584875  0.48731112     0.01200
C3829       C  0.08219900  0.40289637  0.48886026    -0.24100
C3830       C  0.10371787  0.36064026  0.42848416    -0.28700
C3831       C  0.09640932  0.36428276  0.41115741     0.06900
C3832       C  0.08551877  0.37994821  0.40867410    -0.27300
H3833       H  0.11547769  0.35668397  0.46294358     0.11600
H3834       H  0.10630723  0.37529660  0.48920266     0.12700
H3835       H  0.06392343  0.40965129  0.40794780     0.11800
H3836       H  0.05407764  0.42764250  0.43442949     0.11100
H3837       H  0.05289503  0.43193241  0.46754773     0.16500
H3838       H  0.08817083  0.39964536  0.50191645     0.12400
H3839       H  0.11212488  0.34861770  0.43049863     0.15200
H3840       H  0.07977399  0.38283311  0.39537564     0.15000
C3841       C  0.06869138  0.35227194  0.54908774    -0.17900
C3842       C  0.06224560  0.36377691  0.53534284    -0.20000
C3843       C  0.06581450  0.38263069  0.53592822     0.20600
C3844       C  0.07600318  0.39000402  0.55040786    -0.03000
C3845       C  0.08207572  0.37845160  0.56461018    -0.06000
C3846       C  0.07848831  0.35949128  0.56383817     0.20900
C3847       C  0.09151703  0.38588058  0.57964523     0.19000
C3848       C  0.09524305  0.40473302  0.58002715    -0.17500
C3849       C  0.08983446  0.41605913  0.56557571    -0.19700
C3850       C  0.08015633  0.40885541  0.55067843     0.20500
C3851       C  0.07474286  0.42009284  0.53600440    -0.32700
C3852       C  0.06410971  0.41296120  0.52153999     0.01200
C3853       C  0.05948839  0.39413664  0.52212234    -0.24100
C3854       C  0.08427797  0.34812658  0.57806008    -0.28700
C3855       C  0.09296405  0.35548086  0.59348729     0.06900
C3856       C  0.09668923  0.37437703  0.59414580    -0.27300
H3857       H  0.06577641  0.33775829  0.54831734     0.11600
H3858       H  0.05454091  0.35790358  0.52418301     0.12700
H3859       H  0.10244476  0.41071278  0.59145969     0.11800
H3860       H  0.09307169  0.43051053  0.56614521     0.11100
H3861       H  0.07917259  0.43418152  0.53589695     0.16500
H3862       H  0.05160766  0.38822977  0.51109014     0.12400
H3863       H  0.08110103  0.33364517  0.57756224     0.15200
H3864       H  0.10327275  0.38014959  0.60605774     0.15000
C3865       C  0.10418622  0.58300739  0.45578498    -0.17900
C3866       C  0.10943006  0.59373577  0.44073075    -0.20000
C3867       C  0.09687230  0.60538291  0.43206773     0.20600
C3868       C  0.07879035  0.60584226  0.43857043    -0.03000
C3869       C  0.07341098  0.59461910  0.45333253    -0.06000
C3870       C  0.08616473  0.58335318  0.46225806     0.20900
C3871       C  0.05530178  0.59512762  0.45945008     0.19000
C3872       C  0.04272223  0.60686098  0.45111436    -0.17500
C3873       C  0.04805882  0.61811233  0.43679462    -0.19700
C3874       C  0.06602787  0.61772433  0.43048492     0.20500
C3875       C  0.07135597  0.62920242  0.41629320    -0.32700
C3876       C  0.08921140  0.62896111  0.40951959     0.01200
C3877       C  0.10195545  0.61674411  0.41723693    -0.24100
C3878       C  0.08069835  0.57300805  0.47764193    -0.28700
C3879       C  0.06230832  0.57284669  0.48358862     0.06900
C3880       C  0.04995556  0.58436105  0.47414843    -0.27300
H3881       H  0.11424365  0.57441834  0.46235401     0.11600
H3882       H  0.12338878  0.59312602  0.43604455     0.12700
H3883       H  0.02874971  0.60746623  0.45578716     0.11800
H3884       H  0.03812059  0.62717196  0.43067731     0.11100
H3885       H  0.06134292  0.63824848  0.41023369     0.16500
H3886       H  0.11573912  0.61638018  0.41202246     0.12400
H3887       H  0.09075665  0.56521353  0.48513350     0.15200
H3888       H  0.03617465  0.58627260  0.47886653     0.15000
C3889       C  0.06997032  0.63633550  0.54455024    -0.17900
C3890       C  0.06411735  0.62490142  0.53046390    -0.20000
C3891       C  0.06843064  0.60620069  0.53062204     0.20600
C3892       C  0.07911241  0.59898779  0.54480109    -0.03000
C3893       C  0.08486085  0.61050554  0.55919345    -0.06000
C3894       C  0.08009062  0.62921116  0.55910048     0.20900
C3895       C  0.09486929  0.60321728  0.57390818     0.19000
C3896       C  0.09962378  0.58459271  0.57368118    -0.17500
C3897       C  0.09420363  0.57324937  0.55921009    -0.19700
C3898       C  0.08368842  0.58024053  0.54481075     0.20500
C3899       C  0.07734070  0.56876667  0.53068525    -0.32700
C3900       C  0.06548940  0.57556795  0.51703772     0.01200
C3901       C  0.06172986  0.59457462  0.51707678    -0.24100
C3902       C  0.08488902  0.64035810  0.57386650    -0.28700
C3903       C  0.09402991  0.63306628  0.58904346     0.06900
C3904       C  0.09936678  0.61454911  0.58881222    -0.27300
H3905       H  0.06622716  0.65067597  0.54427075     0.11600
H3906       H  0.05597672  0.63064353  0.51956456     0.12700
H3907       H  0.10734950  0.57873815  0.58481014     0.11800
H3908       H  0.09789662  0.55889579  0.55949752     0.11100
H3909       H  0.08148024  0.55458168  0.53071612     0.16500
H3910       H  0.05288027  0.60031626  0.50677696     0.12400
H3911       H  0.08070110  0.65458693  0.57390126     0.15200
H3912       H  0.10639117  0.60881980  0.60046899     0.15000
C3913       C  0.07872616  0.48384778  0.47645439    -0.17900
C3914       C  0.07783761  0.50299763  0.47550230    -0.20000
C3915       C  0.07036967  0.51321786  0.48992985     0.20600
C3916       C  0.06387053  0.50393653  0.50545799    -0.03000
C3917       C  0.06404501  0.48454130  0.50604173    -0.06000
C3918       C  0.07157982  0.47446451  0.49157267     0.20900
C3919       C  0.05660825  0.47525356  0.52107260     0.19000
C3920       C  0.04991975  0.48542698  0.53590493    -0.17500
C3921       C  0.05004933  0.50459259  0.53550524    -0.19700
C3922       C  0.05670397  0.51396598  0.52019378     0.20500
C3923       C  0.05576255  0.53313190  0.51918518    -0.32700
C3924       C  0.06146694  0.54282448  0.50344601     0.01200
C3925       C  0.06881287  0.53243619  0.48883580    -0.24100
C3926       C  0.07144523  0.45520104  0.49216500    -0.28700
C3927       C  0.06192295  0.44536155  0.50598068     0.06900
C3928       C  0.05550335  0.45601293  0.52088862    -0.27300
H3929       H  0.08452642  0.47634395  0.46509614     0.11600
H3930       H  0.08297165  0.50981141  0.46344586     0.12700
H3931       H  0.04429797  0.47856060  0.54771244     0.11800
H3932       H  0.04455271  0.51208481  0.54702193     0.11100
H3933       H  0.04969188  0.54061790  0.53042645     0.16500
H3934       H  0.07256439  0.53890775  0.47617399     0.12400
H3935       H  0.07866559  0.44828234  0.48140906     0.15200
H3936       H  0.05004092  0.44956871  0.53283010     0.15000
C3937       C  0.89855577  0.62604305  0.46010179    -0.17900
C3938       C  0.90390144  0.61610998  0.47543609    -0.20000
C3939       C  0.90362320  0.59691630  0.47519475     0.20600
C3940       C  0.89759294  0.58758271  0.45953393    -0.03000
C3941       C  0.89245096  0.59764741  0.44386056    -0.06000
C3942       C  0.89306530  0.61695169  0.44417548     0.20900
C3943       C  0.88730040  0.58843351  0.42774092     0.19000
C3944       C  0.88682429  0.56919239  0.42770434    -0.17500
C3945       C  0.89174033  0.55922366  0.44332185    -0.19700
C3946       C  0.89733780  0.56825851  0.45930991     0.20500
C3947       C  0.90319764  0.55836832  0.47482234    -0.32700
C3948       C  0.90959228  0.56762094  0.49056424     0.01200
C3949       C  0.90980501  0.58699787  0.49022795    -0.24100
C3950       C  0.88891350  0.62688135  0.42838208    -0.28700
C3951       C  0.88459175  0.61790834  0.41196041     0.06900
C3952       C  0.88340607  0.59862421  0.41183927    -0.27300
H3953       H  0.89911640  0.64085388  0.46056621     0.11600
H3954       H  0.90845949  0.62345698  0.48744144     0.12700
H3955       H  0.88289325  0.56182371  0.41549761     0.11800
H3956       H  0.89144676  0.54440956  0.44278455     0.11100
H3957       H  0.90362916  0.54360089  0.47410743     0.16500
H3958       H  0.91522324  0.59443497  0.50182614     0.12400
H3959       H  0.88990138  0.64168349  0.42868614     0.15200
H3960       H  0.88014283  0.59154997  0.39925956     0.15000
C3961       C  0.92307429  0.58114670  0.58862152    -0.17900
C3962       C  0.92636684  0.56982891  0.57352658    -0.20000
C3963       C  0.91528043  0.57090010  0.55798009     0.20600
C3964       C  0.90044926  0.58314722  0.55788217    -0.03000
C3965       C  0.89693764  0.59437953  0.57322365    -0.06000
C3966       C  0.90847842  0.59356482  0.58855158     0.20900
C3967       C  0.88218748  0.60677130  0.57299808     0.19000
C3968       C  0.87078353  0.60739342  0.55766902    -0.17500
C3969       C  0.87434397  0.59635588  0.54245019    -0.19700
C3970       C  0.88938919  0.58450857  0.54227323     0.20500
C3971       C  0.89415982  0.57486110  0.52639745    -0.32700
C3972       C  0.91047447  0.56456179  0.52549780     0.01200
C3973       C  0.91947904  0.56086136  0.54213058    -0.24100
C3974       C  0.90541452  0.60539559  0.60337850    -0.28700
C3975       C  0.89097803  0.61810089  0.60310789     0.06900
C3976       C  0.87931354  0.61855446  0.58792144    -0.27300
H3977       H  0.93208232  0.58033410  0.60027814     0.11600
H3978       H  0.93792096  0.56062263  0.57380678     0.12700
H3979       H  0.85932050  0.61670558  0.55729054     0.11800
H3980       H  0.86562845  0.59749333  0.53059772     0.11100
H3981       H  0.88556334  0.57627074  0.51451404     0.16500
H3982       H  0.93120022  0.55185837  0.54214529     0.12400
H3983       H  0.91452170  0.60496373  0.61499028     0.15200
H3984       H  0.86817350  0.62826996  0.58759302     0.15000
C3985       C  0.99710919  0.58284044  0.53161850    -0.17900
C3986       C  0.97807073  0.58379310  0.53131437    -0.20000
C3987       C  0.96817734  0.57535639  0.51723693     0.20600
C3988       C  0.97762742  0.56649353  0.50301644    -0.03000
C3989       C  0.99682079  0.56553062  0.50331686    -0.06000
C3990       C  0.00661856  0.57358091  0.51776296     0.20900
C3991       C  0.00613616  0.55615864  0.48934695     0.19000
C3992       C  0.99631918  0.54841974  0.47486609    -0.17500
C3993       C  0.97735340  0.54955665  0.47446460    -0.19700
C3994       C  0.96789203  0.55828157  0.48864024     0.20500
C3995       C  0.94886982  0.55783168  0.48926177    -0.32700
C3996       C  0.93925042  0.56417407  0.50478577     0.01200
C3997       C  0.94905215  0.57480555  0.51763753    -0.24100
C3998       C  0.02571339  0.57237538  0.51804170    -0.28700
C3999       C  0.03535455  0.56369659  0.50366599     0.06900
C4000       C  0.02511550  0.55486404  0.48990154    -0.27300
H4001       H  0.00439106  0.58924403  0.54277176     0.11600
H4002       H  0.97106932  0.59071679  0.54235145     0.12700
H4003       H  0.00330785  0.54135925  0.46390366     0.11800
H4004       H  0.97005749  0.54317024  0.46331074     0.11100
H4005       H  0.94159381  0.55057609  0.47862510     0.16500
H4006       H  0.94213443  0.58213194  0.52838608     0.12400
H4007       H  0.03283790  0.57828250  0.52951148     0.15200
H4008       H  0.03216019  0.54777192  0.47898104     0.15000
C4009       C  0.87457094  0.37787960  0.46881632    -0.17900
C4010       C  0.87012865  0.36743302  0.45343687    -0.20000
C4011       C  0.87915547  0.37030429  0.43683124     0.20600
C4012       C  0.89215928  0.38447678  0.43553025    -0.03000
C4013       C  0.89688398  0.39480297  0.45118769    -0.06000
C4014       C  0.88834408  0.39116750  0.46794589     0.20900
C4015       C  0.91053903  0.40832711  0.45022248     0.19000
C4016       C  0.91869884  0.41204792  0.43330479    -0.17500
C4017       C  0.91398730  0.40187760  0.41775496    -0.19700
C4018       C  0.90103291  0.38777806  0.41881978     0.20500
C4019       C  0.89740802  0.37639462  0.40374643    -0.32700
C4020       C  0.88542656  0.36140721  0.40531655     0.01200
C4021       C  0.87598604  0.35877308  0.42177668    -0.24100
C4022       C  0.89436886  0.40007320  0.48378166    -0.28700
C4023       C  0.90999399  0.41149968  0.48364034     0.06900
C4024       C  0.91652981  0.41705170  0.46634089    -0.27300
H4025       H  0.86775952  0.37501460  0.48160053     0.11600
H4026       H  0.85995825  0.35678224  0.45466176     0.12700
H4027       H  0.92915907  0.42242084  0.43221244     0.11800
H4028       H  0.92088223  0.40468483  0.40500647     0.11100
H4029       H  0.90477454  0.37852630  0.39112024     0.16500
H4030       H  0.86665971  0.34736379  0.42306439     0.12400
H4031       H  0.88717498  0.39724117  0.49631367     0.15200
H4032       H  0.92743829  0.42699124  0.46559180     0.15000
C4033       C  0.88575509  0.40377137  0.58022737    -0.17900
C4034       C  0.89084375  0.41421228  0.56495320    -0.20000
C4035       C  0.89787762  0.40574923  0.54920988     0.20600
C4036       C  0.89946290  0.38648607  0.54890730    -0.03000
C4037       C  0.89415040  0.37592814  0.56423567    -0.06000
C4038       C  0.88747538  0.38459306  0.58010345     0.20900
C4039       C  0.89595700  0.35670182  0.56379717     0.19000
C4040       C  0.90290292  0.34817148  0.54812177    -0.17500
C4041       C  0.90834247  0.35859121  0.53312998    -0.19700
C4042       C  0.90679820  0.37772816  0.53346610     0.20500
C4043       C  0.91281382  0.38817397  0.51868815    -0.32700
C4044       C  0.91123174  0.40750926  0.51839159     0.01200
C4045       C  0.90367466  0.41616559  0.53397591    -0.24100
C4046       C  0.88315046  0.37395279  0.59564040    -0.28700
C4047       C  0.88525534  0.35472819  0.59535816     0.06900
C4048       C  0.89131820  0.34630526  0.57918030    -0.27300
H4049       H  0.88062713  0.41073968  0.59222465     0.11600
H4050       H  0.88947813  0.42896279  0.56555409     0.12700
H4051       H  0.90440294  0.33342961  0.54755836     0.11800
H4052       H  0.91390417  0.35166722  0.52129389     0.11100
H4053       H  0.91891010  0.38120980  0.50712408     0.16500
H4054       H  0.90285449  0.43091312  0.53469442     0.12400
H4055       H  0.87860496  0.38064026  0.60803203     0.15200
H4056       H  0.89317905  0.33159118  0.57876969     0.15000
C4057       C  0.99926481  0.40366853  0.47289459    -0.17900
C4058       C  0.98028907  0.40166608  0.47276436    -0.20000
C4059       C  0.96990535  0.40643534  0.48814902     0.20600
C4060       C  0.97889141  0.41296647  0.50385116    -0.03000
C4061       C  0.99800493  0.41528048  0.50384963    -0.06000
C4062       C  0.00824628  0.41066050  0.48834474     0.20900
C4063       C  0.00687551  0.42187598  0.51950927     0.19000
C4064       C  0.99669283  0.42567455  0.53526582    -0.17500
C4065       C  0.97781138  0.42346870  0.53527005    -0.19700
C4066       C  0.96879083  0.41733868  0.51955010     0.20500
C4067       C  0.94978407  0.41653427  0.51901327    -0.32700
C4068       C  0.94029598  0.41222280  0.50269070     0.01200
C4069       C  0.95072763  0.40546740  0.48785785    -0.24100
C4070       C  0.02727218  0.41289397  0.48854518    -0.28700
C4071       C  0.03653755  0.42105069  0.50359321     0.06900
C4072       C  0.02577865  0.42444440  0.51932698    -0.27300
H4073       H  0.00689680  0.39998791  0.46078563     0.11600
H4074       H  0.97371716  0.39662758  0.46052633     0.12700
H4075       H  0.00330201  0.43062295  0.54752109     0.11800
H4076       H  0.97022393  0.42688334  0.54748197     0.11100
H4077       H  0.94226249  0.42126109  0.53082963     0.16500
H4078       H  0.94429635  0.40017689  0.47575478     0.12400
H4079       H  0.03439742  0.40737174  0.47700836     0.15200
H4080       H  0.03210582  0.42788812  0.53209378     0.15000
C4081       C  0.88434389  0.49745849  0.50488002    -0.17900
C4082       C  0.88445128  0.47812397  0.50418813    -0.20000
C4083       C  0.90094747  0.46829383  0.50389555     0.20600
C4084       C  0.91734395  0.47828133  0.50446828    -0.03000
C4085       C  0.91722816  0.49762572  0.50587552    -0.06000
C4086       C  0.90072341  0.50744033  0.50574038     0.20900
C4087       C  0.93377026  0.50709852  0.50758161     0.19000
C4088       C  0.95028253  0.49754776  0.50710440    -0.17500
C4089       C  0.95041704  0.47870475  0.50450135    -0.19700
C4090       C  0.93401831  0.46900095  0.50334488     0.20500
C4091       C  0.93429922  0.45012087  0.50113126    -0.32700
C4092       C  0.91836102  0.43923464  0.50247438     0.01200
C4093       C  0.90150780  0.44879984  0.50318853    -0.24100
C4094       C  0.90108273  0.52692945  0.50617484    -0.28700
C4095       C  0.91783350  0.53663501  0.50712255     0.06900
C4096       C  0.93378539  0.52603080  0.50949938    -0.27300
H4097       H  0.87142956  0.50459060  0.50481975     0.11600
H4098       H  0.87161488  0.47087840  0.50371426     0.12700
H4099       H  0.96313241  0.50472163  0.50825459     0.11800
H4100       H  0.96337586  0.47165795  0.50378243     0.11100
H4101       H  0.94745122  0.44424431  0.49828251     0.16500
H4102       H  0.88893237  0.44108298  0.50318595     0.12400
H4103       H  0.88845260  0.53453964  0.50554728     0.15200
H4104       H  0.94667890  0.53231095  0.51274212     0.15000
loop_ 
_geom_bond_atom_site_label_1 
_geom_bond_atom_site_label_2 
_geom_bond_distance 
_geom_bond_site_symmetry_2 
_ccdc_geom_bond_type 
C1         C4023   1.568       .  S
C1         C4044   1.565       .  S
C1         C4068   1.572       .  S
C1         C4092   1.575       .  S
C2         C3948   1.558       .  S
C2         C3972   1.560       .  S
C2         C3996   1.568       .  S
C2         C4095   1.570       .  S
C3         C3879   1.569       .  S
C3         C3900   1.557       .  S
C3         C3924   1.562       .  S
C3         C3999   1.561       .  S
C4         C3828   1.578       .  S
C4         C3852   1.561       .  S
C4         C3927   1.587       .  S
C4         C4071   1.584       .  S
C5         C3732   1.574       .  S
C5         C3756   1.559       .  S
C5         C3783   1.578       .  S
C5         C3804   1.583       .  S
C6         C3663   1.560       .  S
C6         C3684   1.578       .  S
C6         C3708   1.578       .  S
C6         C3807   1.578       .  S
C7         C3591   1.567       .  S
C7         C3612   1.557       .  S
C7         C3636   1.560       .  S
C7         C3711   1.561       .  S
C8         C3543   1.558       .  S
C8         C3564   1.565       .  S
C8         C3639   1.561       .  S
C8         C3780   1.559       .  S
C9         C3447   1.563       .  S
C9         C3468   1.564       .  S
C9         C3492   1.560       .  S
C9         C3516   1.559       .  S
C10        C3372   1.566       .  S
C10        C3396   1.561       .  S
C10        C3420   1.563       .  S
C10        C3519   1.560       .  S
C11        C3300   1.561       .  S
C11        C3324   1.555       .  S
C11        C3348   1.554       .  S
C11        C3423   1.562       .  S
C12        C3252   1.562       .  S
C12        C3276   1.562       .  S
C12        C3351   1.556       .  S
C12        C3495   1.560       .  S
C13        C3156   1.561   1_554  S
C13        C3180   1.558       .  S
C13        C3204   1.556       .  S
C13        C3228   1.562       .  S
C14        C3084   1.567   1_554  S
C14        C3108   1.562       .  S
C14        C3132   1.564       .  S
C14        C3231   1.562       .  S
C15        C3012   1.558   1_554  S
C15        C3036   1.556       .  S
C15        C3060   1.560       .  S
C15        C3207   1.554       .  S
C16        C2967   1.568   1_554  S
C16        C2991   1.564       .  S
C16        C3063   1.559       .  S
C16        C3135   1.566       .  S
C17        C2868   1.577       .  S
C17        C2892   1.564   1_565  S
C17        C2916   1.580       .  S
C17        C2940   1.580       .  S
C18        C2796   1.559       .  S
C18        C2820   1.565   1_565  S
C18        C2844   1.563       .  S
C18        C2943   1.561       .  S
C19        C2724   1.574       .  S
C19        C2748   1.561   1_565  S
C19        C2772   1.578       .  S
C19        C2919   1.583       .  S
C20        C2676   1.560       .  S
C20        C2700   1.571   1_565  S
C20        C2775   1.562       .  S
C20        C2847   1.566       .  S
C21        C2580   1.563       .  S
C21        C2604   1.579   1_655  S
C21        C2628   1.583       .  S
C21        C2652   1.584       .  S
C22        C2508   1.567       .  S
C22        C2532   1.559   1_655  S
C22        C2556   1.562       .  S
C22        C2655   1.565       .  S
C23        C2436   1.562       .  S
C23        C2463   1.556       .  S
C23        C2484   1.564       .  S
C23        C2559   1.558       .  S
C24        C2388   1.565       .  S
C24        C2415   1.577   1_655  S
C24        C2487   1.585       .  S
C24        C2631   1.584       .  S
In25         O27   2.283       .  S
In25         O28   2.209       .  S
In25         O36   2.211       .  S
In25         O30   2.280       .  S
In25         O32   2.266       .  S
In25         O33   2.232       .  S
In25         O34   2.237       .  S
In25         O37   2.240       .  S
C26          O32   1.263       .  A
C26          O34   1.259       .  A
C26        C2460   1.481       .  S
O27          C35   1.266       .  A
O28          C35   1.256       .  A
C29          O36   1.258       .  A
C29          O30   1.266       .  A
C29        C2343   1.481       .  S
C31          O33   1.259       .  A
C31          O37   1.261       .  A
C31        C2364   1.469       .  S
C35        C2316   1.479       .  S
In38         O40   2.221       .  S
In38         O41   2.252       .  S
In38         O49   2.286       .  S
In38         O43   2.228       .  S
In38         O45   2.259       .  S
In38         O46   2.237       .  S
In38         O47   2.264       .  S
In38         O50   2.265       .  S
C39          O45   1.260       .  A
C39          O47   1.261       .  A
C39        C2412   1.487       .  S
O40          C48   1.259       .  A
O41          C48   1.262       .  A
C42          O49   1.265       .  A
C42          O43   1.256       .  A
C42        C2292   1.485       .  S
C44          O46   1.260       .  A
C44          O50   1.264       .  A
C44        C2271   1.480       .  S
C48        C2367   1.471       .  S
In51         O53   2.259       .  S
In51         O54   2.229       .  S
In51         O62   2.247       .  S
In51         O56   2.270       .  S
In51         O58   2.286       .  S
In51         O59   2.201       .  S
In51         O60   2.243       .  S
In51         O63   2.279       .  S
C52          O58   1.265       .  A
C52          O60   1.258       .  A
C52        C3759   1.489       .  S
O53          C61   1.262       .  A
O54          C61   1.258       .  A
C55          O62   1.257       .  A
C55          O56   1.265       .  A
C55        C2196   1.485       .  S
C57          O59   1.257       .  A
C57          O63   1.266       .  A
C57        C2220   1.475       .  S
C61        C2247   1.475       .  S
In64         O66   2.279       .  S
In64         O67   2.223       .  S
In64         O75   2.250       .  S
In64         O69   2.273       .  S
In64         O71   2.216       .  S
In64         O72   2.235       .  S
In64         O73   2.317       .  S
In64         O76   2.252       .  S
C65          O71   1.254       .  A
C65          O73   1.267       .  A
C65        C3567   1.490       .  S
O66          C74   1.268       .  A
O67          C74   1.259       .  A
C68          O75   1.256       .  A
C68          O69   1.262       .  A
C68        C2175   1.483       .  S
C70          O72   1.260       .  A
C70          O76   1.261       .  A
C70        C2244   1.474       .  S
C74        C2295   1.483       .  S
In77         O79   2.270       .  S
In77         O80   2.224       .  S
In77         O88   2.221       .  S
In77         O82   2.272       .  S
In77         O84   2.257       .  S
In77         O85   2.238       .  S
In77         O86   2.268       .  S
In77         O89   2.236       .  S
C78          O84   1.260       .  A
C78          O86   1.262       .  A
C78        C2607   1.487       .  S
O79          C87   1.266       .  A
O80          C87   1.259       .  A
C81          O88   1.256       .  A
C81          O82   1.265       .  A
C81        C2223   1.477       .  S
C83          O85   1.261       .  A
C83          O89   1.259       .  A
C83        C2151   1.471       .  S
C87        C2124   1.480       .  S
In90         O92   2.257       .  S
In90         O93   2.216       .  S
In90        O101   2.210       .  S
In90         O95   2.269       .  S
In90         O97   2.274       .  S
In90         O98   2.226       .  S
In90         O99   2.235       .  S
In90        O102   2.271       .  S
C91          O97   1.264       .  A
C91          O99   1.259       .  A
C91        C2535   1.484       .  S
O92         C100   1.262       .  A
O93         C100   1.260       .  A
C94         O101   1.258       .  A
C94          O95   1.266       .  A
C94        C2103   1.477       .  S
C96          O98   1.257       .  A
C96         O102   1.264       .  A
C96        C2079   1.478       .  S
C100       C2148   1.473       .  S
In103       O105   2.257       .  S
In103       O106   2.215       .  S
In103       O114   2.209       .  S
In103       O108   2.275       .  S
In103       O110   2.250       .  S
In103       O111   2.222       .  S
In103       O112   2.262       .  S
In103       O115   2.236       .  S
C104        O110   1.260       .  A
C104        O112   1.261       .  A
C104       C3735   1.482       .  S
O105        C113   1.266       .  A
O106        C113   1.258       .  A
C107        O114   1.254       .  A
C107        O108   1.264       .  A
C107       C2028   1.474       .  S
C109        O111   1.260       .  A
C109        O115   1.259       .  A
C109       C2052   1.465       .  S
C113       C2100   1.472       .  S
In116       O118   2.227       .  S
In116       O119   2.230       .  S
In116       O127   2.230       .  S
In116       O121   2.280       .  S
In116       O123   2.282       .  S
In116       O124   2.244       .  S
In116       O125   2.241       .  S
In116       O128   2.266       .  S
C117        O123   1.264       .  A
C117        O125   1.259       .  A
C117       C3540   1.488       .  S
O118        C126   1.260       .  A
O119        C126   1.260       .  A
C120        O127   1.258       .  A
C120        O121   1.266       .  A
C120       C2007   1.484       .  S
C122        O124   1.257       .  A
C122        O128   1.264       .  A
C122       C2340   1.482       .  S
C126       C2055   1.467       .  S
In129       O131   2.280       .  S
In129       O132   2.236       .  S
In129       O140   2.217       .  S
In129       O134   2.286       .  S
In129       O136   2.279       .  S
In129       O137   2.223       .  S
In129       O138   2.228       .  S
In129       O141   2.259       .  S
C130        O136   1.264       .  A
C130        O138   1.259       .  A
C130       C3039   1.484       .  S
O131        C139   1.264       .  A
O132        C139   1.257       .  A
C133        O140   1.257       .  A
C133        O134   1.265       .  A
C133       C1956   1.482       .  S
C135        O137   1.260       .  A
C135        O141   1.262       .  A
C135       C1980   1.474       .  S
C139       C2004   1.484       .  S
In142       O144   2.243       .  S
In142       O145   2.227       .  S
In142       O153   2.236       .  S
In142       O147   2.293       .  S
In142       O149   2.287       .  S
In142       O150   2.248       .  S
In142       O151   2.247       .  S
In142       O154   2.292       .  S
C143        O149   1.266       .  A
C143        O151   1.260       .  A
C143       C2988   1.493       .  S
O144        C152   1.261       .  A
O145        C152   1.262       .  A
C146        O153   1.256       .  A
C146        O147   1.266       .  A
C146       C1932   1.489       .  S
C148        O150   1.256       .  A
C148        O154   1.264       .  A
C148       C1908   1.490       .  S
C152       C1983   1.472       .  S
In155       O157   2.256       .  S
In155       O158   2.233       .  S
In155       O166   2.235       .  S
In155       O160   2.287       .  S
In155       O162   2.287       .  S
In155       O163   2.223       .  S
In155       O164   2.231       .  S
In155       O167   2.287       .  S
C156        O162   1.266       .  A
C156        O164   1.260       .  A
C156       C3399   1.489       .  S
O157        C165   1.263       .  A
O158        C165   1.260       .  A
C159        O166   1.256       .  A
C159        O160   1.265       .  A
C159       C1839   1.485       .  S
C161        O163   1.256       .  A
C161        O167   1.263       .  A
C161       C1860   1.478       .  S
C165       C1884   1.478       .  S
In168       O170   2.284       .  S
In168       O171   2.231       .  S
In168       O179   2.236       .  S
In168       O173   2.285       .  S
In168       O175   2.285       .  S
In168       O176   2.237       .  S
In168       O177   2.226       .  S
In168       O180   2.262       .  S
C169        O175   1.265       .  A
C169        O177   1.259       .  A
C169       C3327   1.484       .  S
O170        C178   1.266       .  A
O171        C178   1.258       .  A
C172        O179   1.257       .  A
C172        O173   1.262       .  A
C172       C1812   1.485       .  S
C174        O176   1.258       .  A
C174        O180   1.260       .  A
C174       C1887   1.477       .  S
C178       C1935   1.486       .  S
In181       O183   2.283       .  S
In181       O184   2.219       .  S
In181       O192   2.228       .  S
In181       O186   2.269       .  S
In181       O188   2.280       .  S
In181       O189   2.217       .  S
In181       O190   2.237       .  S
In181       O193   2.253       .  S
C182        O188   1.264       .  A
C182        O190   1.259       .  A
C182       C3111   1.486       .  S
O183        C191   1.265       .  A
O184        C191   1.257       .  A
C185        O192   1.257       .  A
C185        O186   1.266       .  A
C185       C1863   1.480       .  S
C187        O189   1.260       .  A
C187        O193   1.262       .  A
C187       C1788   1.472       .  S
C191       C1764   1.480       .  S
In194       O196   2.266       .  S
In194       O197   2.219       .  S
In194       O205   2.243       .  S
In194       O199   2.265       .  S
In194       O201   2.281       .  S
In194       O202   2.213       .  S
In194       O203   2.251       .  S
In194       O206   2.282       .  S
C195        O201   1.260       .  A
C195        O203   1.257       .  A
C195       C3183   1.484       .  S
O196        C204   1.260       .  A
O197        C204   1.257       .  A
C198        O205   1.259       .  A
C198        O199   1.265       .  A
C198       C1743   1.484       .  S
C200        O202   1.257       .  A
C200        O206   1.267       .  A
C200       C2172   1.482       .  S
C204       C1791   1.473       .  S
In207       O209   2.297       .  S
In207       O210   2.223       .  S
In207       O218   2.251       .  S
In207       O212   2.270       .  S
In207       O214   2.225       .  S
In207       O215   2.233       .  S
In207       O216   2.318       .  S
In207       O219   2.248       .  S
C208        O214   1.256       .  A
C208        O216   1.264       .  A
C208       C3375   1.493       .  S
O209        C217   1.266       .  A
O210        C217   1.255       .  A
C211        O218   1.257       .  A
C211        O212   1.262       .  A
C211       C1695   1.483       .  S
C213        O215   1.260       .  A
C213        O219   1.262       .  A
C213       C1716   1.472       .  S
C217       C1740   1.485       .  S
In220       O222   2.230       .  S
In220       O223   2.236       .  S
In220       O231   2.259       .  S
In220       O225   2.238       .  S
In220       O227   2.312       .  S
In220       O228   2.218       .  S
In220       O229   2.211       .  S
In220       O232   2.265       .  S
C221        O227   1.266       .  A
C221        O229   1.255       .  A
C221       C3303   1.488       .  S
O222        C230   1.260       .  A
O223        C230   1.260       .  A
C224        O231   1.260       .  A
C224        O225   1.259       .  A
C224       C1668   1.478       .  S
C226        O228   1.258       .  A
C226        O232   1.268       .  A
C226       C1959   1.478       .  S
C230       C1719   1.467       .  S
In233       O235   2.281       .  S
In233       O236   2.220       .  S
In233       O244   2.232       .  S
In233       O238   2.256       .  S
In233       O240   2.217       .  S
In233       O241   2.229       .  S
In233       O242   2.296       .  S
In233       O245   2.246       .  S
C234        O240   1.256       .  A
C234        O242   1.263       .  A
C234       C2751   1.485       .  S
O235        C243   1.263       .  A
O236        C243   1.255       .  A
C237        O244   1.259       .  A
C237        O238   1.264       .  A
C237       C1623   1.477       .  S
C239        O241   1.259       .  A
C239        O245   1.261       .  A
C239       C1644   1.471       .  S
C243       C1671   1.478       .  S
In246       O248   2.243       .  S
In246       O249   2.234       .  S
In246       O257   2.240       .  S
In246       O251   2.257       .  S
In246       O253   2.324       .  S
In246       O254   2.217       .  S
In246       O255   2.210       .  S
In246       O258   2.280       .  S
C247        O253   1.266       .  A
C247        O255   1.255       .  A
C247       C2703   1.492       .  S
O248        C256   1.261       .  A
O249        C256   1.260       .  A
C250        O257   1.258       .  A
C250        O251   1.264       .  A
C250       C1596   1.479       .  S
C252        O254   1.257       .  A
C252        O258   1.265       .  A
C252       C1572   1.481       .  S
C256       C1647   1.471       .  S
In259       O261   2.257       .  S
In259       O262   2.203       .  S
In259       O270   2.233       .  S
In259       O264   2.281       .  S
In259       O266   2.297       .  S
In259       O267   2.232       .  S
In259       O268   2.253       .  S
In259       O271   2.280       .  S
C260        O266   1.262       .  A
C260        O268   1.259       .  A
C260       C4047   1.495       .  S
O261        C269   1.262       .  A
O262        C269   1.258       .  A
C263        O270   1.256       .  A
C263        O264   1.266       .  A
C263       C1500   1.484       .  S
C265        O267   1.258       .  A
C265        O271   1.268       .  A
C265       C1524   1.486       .  S
C269       C1548   1.468       .  S
In272       O274   2.273       .  S
In272       O275   2.215       .  S
In272       O283   2.265       .  S
In272       O277   2.217       .  S
In272       O279   2.264       .  S
In272       O280   2.218       .  S
In272       O281   2.244       .  S
In272       O284   2.250       .  S
C273        O279   1.260       .  A
C273        O281   1.259       .  A
C273       C3855   1.481       .  S
O274        C282   1.266       .  A
O275        C282   1.258       .  A
C276        O283   1.265       .  A
C276        O277   1.258       .  A
C276       C2076   1.476       .  S
C278        O280   1.259       .  A
C278        O284   1.260       .  A
C278       C1551   1.469       .  S
C282       C1599   1.480       .  S
In285       O287   2.284       .  S
In285       O288   2.222       .  S
In285       O296   2.228       .  S
In285       O290   2.273       .  S
In285       O292   2.208       .  S
In285       O293   2.223       .  S
In285       O294   2.304       .  S
In285       O297   2.251       .  S
C286        O292   1.256       .  A
C286        O294   1.266       .  A
C286       C2823   1.485       .  S
O287        C295   1.265       .  A
O288        C295   1.257       .  A
C289        O296   1.258       .  A
C289        O290   1.265       .  A
C289       C1527   1.482       .  S
C291        O293   1.261       .  A
C291        O297   1.262       .  A
C291       C1476   1.473       .  S
C295       C1452   1.483       .  S
In298       O300   2.257       .  S
In298       O301   2.227       .  S
In298       O309   2.254       .  S
In298       O303   2.275       .  S
In298       O305   2.297       .  S
In298       O306   2.231       .  S
In298       O307   2.237       .  S
In298       O310   2.281       .  S
C299        O305   1.266       .  A
C299        O307   1.258       .  A
C299       C2895   1.492       .  S
O300        C308   1.259       .  A
O301        C308   1.258       .  A
C302        O309   1.257       .  A
C302        O303   1.262       .  A
C302       C1428   1.486       .  S
C304        O306   1.259       .  A
C304        O310   1.268       .  A
C304       C1815   1.488       .  S
C308       C1479   1.472       .  S
In311       O313   2.275       .  S
In311       O314   2.233       .  S
In311       O322   2.220       .  S
In311       O316   2.255       .  S
In311       O318   2.276       .  S
In311       O319   2.224       .  S
In311       O320   2.255       .  S
In311       O323   2.232       .  S
C312        O318   1.263       .  A
C312        O320   1.257       .  A
C312       C4020   1.486       .  S
O313        C321   1.265       .  A
O314        C321   1.259       .  A
C315        O322   1.257       .  A
C315        O316   1.265       .  A
C315       C1380   1.473       .  S
C317        O319   1.260       .  A
C317        O323   1.263       .  A
C317       C1404   1.467       .  S
C321       C1431   1.485       .  S
In324       O326   2.232       .  S
In324       O327   2.222       .  S
In324       O335   2.213       .  S
In324       O329   2.268       .  S
In324       O331   2.240       .  S
In324       O332   2.215       .  S
In324       O333   2.264       .  S
In324       O336   2.265       .  S
C325        O331   1.258       .  A
C325        O333   1.263       .  A
C325       C3831   1.481       .  S
O326        C334   1.261       .  A
O327        C334   1.258       .  A
C328        O335   1.256       .  A
C328        O329   1.265       .  A
C328       C2319   1.474       .  S
C330        O332   1.258       .  A
C330        O336   1.266       .  A
C330       C1620   1.476       .  S
C334       C1407   1.465       .  S
In337       O339   2.285       .  S
In337       O340   2.213       .  S
In337       O348   2.246       .  S
In337       O342   2.267       .  S
In337       O344   2.299       .  S
In337       O345   2.238       .  S
In337       O346   2.219       .  S
In337       O349   2.256       .  S
C338        O344   1.266       .  A
C338        O346   1.258       .  A
C338       C2964   1.488       .  S
O339        C347   1.266       .  A
O340        C347   1.257       .  A
C341        O348   1.256       .  A
C341        O342   1.261       .  A
C341       C1311   1.480       .  S
C343        O345   1.259       .  A
C343        O349   1.261       .  A
C343       C1356   1.475       .  S
C347       C1332   1.481       .  S
In350       O352   2.247       .  S
In350       O353   2.242       .  S
In350       O361   2.264       .  S
In350       O355   2.247       .  S
In350       O357   2.303       .  S
In350       O358   2.200       .  S
In350       O359   2.201       .  S
In350       O362   2.268       .  S
C351        O357   1.265       .  A
C351        O359   1.255       .  A
C351       C3015   1.482       .  S
O352        C360   1.262       .  A
O353        C360   1.260       .  A
C354        O361   1.261       .  A
C354        O355   1.257       .  A
C354       C1284   1.481       .  S
C356        O358   1.258       .  A
C356        O362   1.266       .  A
C356       C2031   1.473       .  S
C360       C1359   1.475       .  S
In363       O365   2.283       .  S
In363       O366   2.231       .  S
In363       O374   2.239       .  S
In363       O368   2.291       .  S
In363       O370   2.291       .  S
In363       O371   2.221       .  S
In363       O372   2.252       .  S
In363       O375   2.259       .  S
C364        O370   1.264       .  A
C364        O372   1.260       .  A
C364       C3471   1.494       .  S
O365        C373   1.265       .  A
O366        C373   1.256       .  A
C367        O374   1.256       .  A
C367        O368   1.264       .  A
C367       C1212   1.487       .  S
C369        O371   1.258       .  A
C369        O375   1.262       .  A
C369       C1260   1.472       .  S
C373       C1236   1.484       .  S
In376       O378   2.238       .  S
In376       O379   2.248       .  S
In376       O387   2.264       .  S
In376       O381   2.253       .  S
In376       O383   2.294       .  S
In376       O384   2.221       .  S
In376       O385   2.229       .  S
In376       O388   2.267       .  S
C377        O383   1.266       .  A
C377        O385   1.259       .  A
C377       C3279   1.490       .  S
O378        C386   1.257       .  A
O379        C386   1.258       .  A
C380        O387   1.258       .  A
C380        O381   1.260       .  A
C380       C1455   1.482       .  S
C382        O384   1.260       .  A
C382        O388   1.267       .  A
C382       C1308   1.481       .  S
C386       C1263   1.472       .  S
In389       O391   2.236       .  S
In389       O392   2.245       .  S
In389       O400   2.236       .  S
In389       O394   2.268       .  S
In389       O396   2.301       .  S
In389       O397   2.240       .  S
In389       O398   2.223       .  S
In389       O401   2.272       .  S
C390        O396   1.265       .  A
C390        O398   1.256       .  A
C390       C3087   1.487       .  S
O391        C399   1.261       .  A
O392        C399   1.261       .  A
C393        O400   1.259       .  A
C393        O394   1.263       .  A
C393       C1239   1.481       .  S
C395        O397   1.258       .  A
C395        O401   1.263       .  A
C395       C1164   1.482       .  S
C399       C1188   1.473       .  S
In402       O404   2.300       .  S
In402       O405   2.219       .  S
In402       O413   2.248       .  S
In402       O407   2.278       .  S
In402       O409   2.313       .  S
In402       O410   2.222       .  S
In402       O411   2.227       .  S
In402       O414   2.242       .  S
C403        O409   1.267       .  A
C403        O411   1.255       .  A
C403       C3159   1.490       .  S
O404        C412   1.266       .  A
O405        C412   1.256       .  A
C406        O413   1.256       .  A
C406        O407   1.263       .  A
C406       C1140   1.483       .  S
C408        O410   1.260       .  A
C408        O414   1.263       .  A
C408       C1191   1.469       .  S
C412       C2199   1.488       .  S
In415       O417   2.235       .  S
In415       O418   2.225       .  S
In415       O426   2.234       .  S
In415       O420   2.272       .  S
In415       O422   2.303       .  S
In415       O423   2.213       .  S
In415       O424   2.231       .  S
In415       O427   2.288       .  S
C416        O422   1.266       .  A
C416        O424   1.257       .  A
C416       C3444   1.490       .  S
O417        C425   1.262       .  A
O418        C425   1.260       .  A
C419        O426   1.257       .  A
C419        O420   1.265       .  A
C419       C1092   1.482       .  S
C421        O423   1.257       .  A
C421        O427   1.266       .  A
C421       C1143   1.484       .  S
C425       C1116   1.467       .  S
In428       O430   2.263       .  S
In428       O431   2.226       .  S
In428       O439   2.247       .  S
In428       O433   2.261       .  S
In428       O435   2.220       .  S
In428       O436   2.239       .  S
In428       O437   2.298       .  S
In428       O440   2.231       .  S
C429        O435   1.257       .  A
C429        O437   1.266       .  A
C429       C3255   1.488       .  S
O430        C438   1.267       .  A
O431        C438   1.261       .  A
C432        O439   1.258       .  A
C432        O433   1.261       .  A
C432       C1575   1.480       .  S
C434        O436   1.259       .  A
C434        O440   1.258       .  A
C434       C1119   1.468       .  S
C438       C1287   1.481       .  S
In441       O443   2.276       .  S
In441       O444   2.222       .  S
In441       O452   2.253       .  S
In441       O446   2.267       .  S
In441       O448   2.305       .  S
In441       O449   2.228       .  S
In441       O450   2.233       .  S
In441       O453   2.256       .  S
C442        O448   1.266       .  A
C442        O450   1.258       .  A
C442       C2391   1.494       .  S
O443        C451   1.268       .  A
O444        C451   1.258       .  A
C445        O452   1.256       .  A
C445        O446   1.261       .  A
C445       C1020   1.482       .  S
C447        O449   1.258       .  A
C447        O453   1.260       .  A
C447       C1068   1.472       .  S
C451       C1044   1.482       .  S
In454       O456   2.244       .  S
In454       O457   2.229       .  S
In454       O465   2.224       .  S
In454       O459   2.274       .  S
In454       O461   2.303       .  S
In454       O462   2.197       .  S
In454       O463   2.206       .  S
In454       O466   2.280       .  S
C455        O461   1.266       .  A
C455        O463   1.257       .  A
C455       C2439   1.485       .  S
O456        C464   1.262       .  A
O457        C464   1.260       .  A
C458        O465   1.255       .  A
C458        O459   1.263       .  A
C458        C996   1.477       .  S
C460        O462   1.255       .  A
C460        O466   1.266       .  A
C460       C1383   1.473       .  S
C464       C1071   1.471       .  S
In467       O469   2.222       .  S
In467       O470   2.241       .  S
In467       O478   2.225       .  S
In467       O472   2.257       .  S
In467       O474   2.250       .  S
In467       O475   2.236       .  S
In467       O476   2.262       .  S
In467       O479   2.275       .  S
C468        O474   1.258       .  A
C468        O476   1.264       .  A
C468       C3687   1.484       .  S
O469        C477   1.260       .  A
O470        C477   1.262       .  A
C471        O478   1.258       .  A
C471        O472   1.264       .  A
C471       C1335   1.476       .  S
C473        O475   1.259       .  A
C473        O479   1.266       .  A
C473        C951   1.486       .  S
C477        C972   1.469       .  S
In480       O482   2.275       .  S
In480       O483   2.226       .  S
In480       O491   2.226       .  S
In480       O485   2.274       .  S
In480       O487   2.268       .  S
In480       O488   2.240       .  S
In480       O489   2.248       .  S
In480       O492   2.232       .  S
C481        O487   1.262       .  A
C481        O489   1.260       .  A
C481       C3615   1.485       .  S
O482        C490   1.266       .  A
O483        C490   1.257       .  A
C484        O491   1.260       .  A
C484        O485   1.267       .  A
C484       C1911   1.485       .  S
C486        O488   1.260       .  A
C486        O492   1.260       .  A
C486        C975   1.470       .  S
C490        C999   1.482       .  S
In493       O495   2.268       .  S
In493       O496   2.223       .  S
In493       O504   2.255       .  S
In493       O498   2.250       .  S
In493       O500   2.289       .  S
In493       O501   2.230       .  S
In493       O502   2.231       .  S
In493       O505   2.242       .  S
C494        O500   1.263       .  A
C494        O502   1.256       .  A
C494       C3660   1.485       .  S
O495        C503   1.269       .  A
O496        C503   1.261       .  A
C497        O504   1.259       .  A
C497        O498   1.258       .  A
C497       C1167   1.479       .  S
C499        O501   1.258       .  A
C499        O505   1.258       .  A
C499        C924   1.468       .  S
C503        C900   1.484       .  S
In506       O508   2.251       .  S
In506       O509   2.218       .  S
In506       O517   2.224       .  S
In506       O511   2.277       .  S
In506       O513   2.303       .  S
In506       O514   2.220       .  S
In506       O515   2.225       .  S
In506       O518   2.278       .  S
C507        O513   1.265       .  A
C507        O515   1.258       .  A
C507       C3588   1.485       .  S
O508        C516   1.263       .  A
O509        C516   1.259       .  A
C510        O517   1.256       .  A
C510        O511   1.266       .  A
C510       C1767   1.481       .  S
C512        O514   1.256       .  A
C512        O518   1.264       .  A
C512       C1023   1.481       .  S
C516        C927   1.470       .  S
In519       O521   2.264       .  S
In519       O522   2.229       .  S
In519       O530   2.249       .  S
In519       O524   2.270       .  S
In519       O526   2.295       .  S
In519       O527   2.229       .  S
In519       O528   2.235       .  S
In519       O531   2.280       .  S
C520        O526   1.264       .  A
C520        O528   1.257       .  A
C520       C2583   1.490       .  S
O521        C529   1.260       .  A
O522        C529   1.258       .  A
C523        O530   1.258       .  A
C523        O524   1.261       .  A
C523        C903   1.483       .  S
C525        O527   1.259       .  A
C525        O531   1.268       .  A
C525        C852   1.486       .  S
C529        C876   1.474       .  S
In532       O534   2.290       .  S
In532       O535   2.218       .  S
In532       O543   2.232       .  S
In532       O537   2.282       .  S
In532       O539   2.227       .  S
In532       O540   2.214       .  S
In532       O541   2.307       .  S
In532       O544   2.262       .  S
C533        O539   1.257       .  A
C533        O541   1.267       .  A
C533       C2511   1.491       .  S
O534        C542   1.266       .  A
O535        C542   1.256       .  A
C536        O543   1.255       .  A
C536        O537   1.265       .  A
C536        C948   1.483       .  S
C538        O540   1.260       .  A
C538        O544   1.263       .  A
C538        C879   1.473       .  S
C542       C1503   1.482       .  S
In545       O547   2.276       .  S
In545       O548   2.220       .  S
In545       O556   2.222       .  S
In545       O550   2.270       .  S
In545       O552   2.256       .  S
In545       O553   2.223       .  S
In545       O554   2.248       .  S
In545       O557   2.238       .  S
C546        O552   1.262       .  A
C546        O554   1.259       .  A
C546       C2679   1.482       .  S
O547        C555   1.266       .  A
O548        C555   1.258       .  A
C549        O556   1.259       .  A
C549        O550   1.266       .  A
C549        C804   1.479       .  S
C551        O553   1.259       .  A
C551        O557   1.261       .  A
C551        C828   1.468       .  S
C555       C1095   1.482       .  S
In558       O560   2.232       .  S
In558       O561   2.242       .  S
In558       O569   2.242       .  S
In558       O563   2.266       .  S
In558       O565   2.240       .  S
In558       O566   2.224       .  S
In558       O567   2.276       .  S
In558       O570   2.278       .  S
C559        O565   1.256       .  A
C559        O567   1.262       .  A
C559       C2727   1.482       .  S
O560        C568   1.259       .  A
O561        C568   1.260       .  A
C562        O569   1.259       .  A
C562        O563   1.263       .  A
C562        C783   1.481       .  S
C564        O566   1.259       .  A
C564        O570   1.267       .  A
C564       C1692   1.484       .  S
C568        C831   1.469       .  S
In571       O573   2.286       .  S
In571       O574   2.229       .  S
In571       O582   2.232       .  S
In571       O576   2.282       .  S
In571       O578   2.251       .  S
In571       O579   2.230       .  S
In571       O580   2.279       .  S
In571       O583   2.240       .  S
C572        O578   1.257       .  A
C572        O580   1.263       .  A
C572       C3975   1.486       .  S
O573        C581   1.265       .  A
O574        C581   1.258       .  A
C575        O582   1.255       .  A
C575        O576   1.262       .  A
C575        C855   1.482       .  S
C577        O579   1.263       .  A
C577        O583   1.261       .  A
C577        C756   1.471       .  S
C581        C732   1.483       .  S
In584       O586   2.251       .  S
In584       O587   2.224       .  S
In584       O595   2.219       .  S
In584       O589   2.266       .  S
In584       O591   2.273       .  S
In584       O592   2.213       .  S
In584       O593   2.229       .  S
In584       O596   2.282       .  S
C585        O591   1.263       .  A
C585        O593   1.259       .  A
C585       C3903   1.482       .  S
O586        C594   1.260       .  A
O587        C594   1.259       .  A
C588        O595   1.258       .  A
C588        O589   1.266       .  A
C588       C2127   1.478       .  S
C590        O592   1.256       .  A
C590        O596   1.265       .  A
C590        C807   1.478       .  S
C594        C759   1.470       .  S
In597       O599   2.242       .  S
In597       O600   2.224       .  S
In597       O608   2.234       .  S
In597       O602   2.265       .  S
In597       O604   2.284       .  S
In597       O605   2.236       .  S
In597       O606   2.241       .  S
In597       O609   2.276       .  S
C598        O604   1.264       .  A
C598        O606   1.259       .  A
C598       C2799   1.489       .  S
O599        C607   1.261       .  A
O600        C607   1.261       .  A
C601        O608   1.258       .  A
C601        O602   1.267       .  A
C601        C735   1.482       .  S
C603        O605   1.258       .  A
C603        O609   1.264       .  A
C603       C1215   1.484       .  S
C607        C708   1.469       .  S
In610       O612   2.269       .  S
In610       O613   2.230       .  S
In610       O621   2.219       .  S
In610       O615   2.277       .  S
In610       O617   2.249       .  S
In610       O618   2.234       .  S
In610       O619   2.264       .  S
In610       O622   2.234       .  S
C611        O617   1.259       .  A
C611        O619   1.262       .  A
C611       C2871   1.483       .  S
O612        C620   1.267       .  A
O613        C620   1.260       .  A
C614        O621   1.256       .  A
C614        O615   1.265       .  A
C614        C684   1.478       .  S
C616        O618   1.261       .  A
C616        O622   1.258       .  A
C616        C711   1.469       .  S
C620       C1836   1.484       .  S
In623       O625   2.253       .  S
In623       O626   2.222       .  S
In623       O634   2.231       .  S
In623       O628   2.286       .  S
In623       O630   2.288       .  S
In623       O631   2.226       .  S
In623       O632   2.243       .  S
In623       O635   2.280       .  S
C624        O630   1.263       .  A
C624        O632   1.260       .  A
C624       C3951   1.491       .  S
O625        C633   1.263       .  A
O626        C633   1.260       .  A
C627        O634   1.255       .  A
C627        O628   1.265       .  A
C627       C1047   1.482       .  S
C629        O631   1.257       .  A
C629        O635   1.265       .  A
C629        C687   1.482       .  S
C633        C660   1.473       .  S
In636       O638   2.294       .  S
In636       O639   2.228       .  S
In636       O647   2.229       .  S
In636       O641   2.272       .  S
In636       O643   2.309       .  S
In636       O644   2.226       .  S
In636       O645   2.224       .  S
In636       O648   2.243       .  S
C637        O643   1.263       .  A
C637        O645   1.257       .  A
C637       C3876   1.487       .  S
O638        C646   1.265       .  A
O639        C646   1.254       .  A
C640        O647   1.257       .  A
C640        O641   1.264       .  A
C640       C2268   1.480       .  S
C642        O644   1.261       .  A
C642        O648   1.263       .  A
C642        C663   1.471       .  S
C646        C780   1.485       .  S
C649        C650   1.396       .  A
C649        C654   1.402   1_655  A
C649        H665   1.084   1_655  S
C650        C651   1.403       .  A
C650        H666   1.084       .  S
C651        C661   1.398       .  A
C651        C652   1.411       .  A
C652        C658   1.412       .  A
C652        C653   1.409       .  A
C653        C655   1.411   1_655  A
C653        C654   1.412   1_655  A
C654        C662   1.398       .  A
C655        C664   1.402       .  A
C655        C656   1.403       .  A
C656        C657   1.399   1_455  A
C656        H667   1.083       .  S
C657        C658   1.404       .  A
C657        H668   1.083       .  S
C658        C659   1.403       .  A
C659        C660   1.405       .  A
C659        H669   1.084       .  S
C660        C661   1.405       .  A
C661        H670   1.084       .  S
C662        C663   1.404       .  A
C662        H671   1.084       .  S
C663        C664   1.405       .  A
C664        H672   1.084       .  S
C673        C674   1.399       .  A
C673        C678   1.403       .  A
C673        H689   1.084       .  S
C674        C675   1.404       .  A
C674        H690   1.084       .  S
C675        C685   1.401       .  A
C675        C676   1.409       .  A
C676        C682   1.414       .  A
C676        C677   1.413       .  A
C677        C679   1.409       .  A
C677        C678   1.414       .  A
C678        C686   1.407       .  A
C679        C688   1.402       .  A
C679        C680   1.404       .  A
C680        C681   1.399       .  A
C680        H691   1.084       .  S
C681        C682   1.403       .  A
C681        H692   1.083       .  S
C682        C683   1.406       .  A
C683        C684   1.405       .  A
C683        H693   1.084       .  S
C684        C685   1.408       .  A
C685        H694   1.084       .  S
C686        C687   1.406       .  A
C686        H695   1.084       .  S
C687        C688   1.409       .  A
C688        H696   1.084       .  S
C697        C698   1.399       .  A
C697        C702   1.404       .  A
C697        H713   1.083       .  S
C698        C699   1.404       .  A
C698        H714   1.084       .  S
C699        C709   1.402       .  A
C699        C700   1.412       .  A
C700        C706   1.411       .  A
C700        C701   1.408       .  A
C701        C703   1.412       .  A
C701        C702   1.411       .  A
C702        C710   1.401       .  A
C703        C712   1.397       .  A
C703        C704   1.402       .  A
C704        C705   1.395       .  A
C704        H715   1.084       .  S
C705        C706   1.402       .  A
C705        H716   1.084       .  S
C706        C707   1.397       .  A
C707        C708   1.403       .  A
C707        H717   1.084       .  S
C708        C709   1.405       .  A
C709        H718   1.084       .  S
C710        C711   1.406       .  A
C710        H719   1.084       .  S
C711        C712   1.402       .  A
C712        H720   1.084       .  S
C721        C722   1.397       .  A
C721        C726   1.402       .  A
C721        H737   1.083       .  S
C722        C723   1.403       .  A
C722        H738   1.084       .  S
C723        C733   1.400       .  A
C723        C724   1.409       .  A
C724        C730   1.414       .  A
C724        C725   1.414       .  A
C725        C727   1.410       .  A
C725        C726   1.413       .  A
C726        C734   1.404       .  A
C727        C736   1.406       .  A
C727        C728   1.406       .  A
C728        C729   1.403       .  A
C728        H739   1.083       .  S
C729        C730   1.405       .  A
C729        H740   1.083       .  S
C730        C731   1.411       .  A
C731        C732   1.408       .  A
C731        H741   1.084       .  S
C732        C733   1.406       .  A
C733        H742   1.084       .  S
C734        C735   1.404       .  A
C734        H743   1.084       .  S
C735        C736   1.411       .  A
C736        H744   1.084       .  S
C745        C746   1.395       .  A
C745        C750   1.402   1_655  A
C745        H761   1.084   1_655  S
C746        C747   1.402       .  A
C746        H762   1.084       .  S
C747        C757   1.397       .  A
C747        C748   1.412       .  A
C748        C754   1.411       .  A
C748        C749   1.409   1_655  A
C749        C751   1.412       .  A
C749        C750   1.411       .  A
C750        C758   1.396       .  A
C751        C760   1.404       .  A
C751        C752   1.404       .  A
C752        C753   1.400   1_455  A
C752        H763   1.083       .  S
C753        C754   1.404       .  A
C753        H764   1.083       .  S
C754        C755   1.403       .  A
C755        C756   1.407       .  A
C755        H765   1.084       .  S
C756        C757   1.402       .  A
C757        H766   1.084       .  S
C758        C759   1.403       .  A
C758        H767   1.085       .  S
C759        C760   1.406       .  A
C760        H768   1.084       .  S
C769        C770   1.399       .  A
C769        C774   1.403       .  A
C769        H785   1.084       .  S
C770        C771   1.404       .  A
C770        H786   1.083       .  S
C771        C781   1.402       .  A
C771        C772   1.409       .  A
C772        C778   1.414       .  A
C772        C773   1.415       .  A
C773        C775   1.410       .  A
C773        C774   1.413       .  A
C774        C782   1.406       .  A
C775        C784   1.405       .  A
C775        C776   1.405       .  A
C776        C777   1.401       .  A
C776        H787   1.083       .  S
C777        C778   1.404       .  A
C777        H788   1.083       .  S
C778        C779   1.410       .  A
C779        C780   1.406       .  A
C779        H789   1.084       .  S
C780        C781   1.410       .  A
C781        H790   1.084       .  S
C782        C783   1.406       .  A
C782        H791   1.084       .  S
C783        C784   1.408       .  A
C784        H792   1.084       .  S
C793        C794   1.400       .  A
C793        C798   1.403       .  A
C793        H809   1.083       .  S
C794        C795   1.404       .  A
C794        H810   1.083       .  S
C795        C805   1.402       .  A
C795        C796   1.409       .  A
C796        C802   1.414       .  A
C796        C797   1.413       .  A
C797        C799   1.409       .  A
C797        C798   1.415       .  A
C798        C806   1.408       .  A
C799        C808   1.399       .  A
C799        C800   1.404       .  A
C800        C801   1.399       .  A
C800        H811   1.084       .  S
C801        C802   1.403       .  A
C801        H812   1.083       .  S
C802        C803   1.406       .  A
C803        C804   1.405       .  A
C803        H813   1.084       .  S
C804        C805   1.408       .  A
C805        H814   1.084       .  S
C806        C807   1.405       .  A
C806        H815   1.084       .  S
C807        C808   1.407       .  A
C808        H816   1.084       .  S
C817        C818   1.397       .  A
C817        C822   1.403       .  A
C817        H833   1.084       .  S
C818        C819   1.403       .  A
C818        H834   1.084       .  S
C819        C829   1.398       .  A
C819        C820   1.411       .  A
C820        C826   1.412       .  A
C820        C821   1.408       .  A
C821        C823   1.411       .  A
C821        C822   1.412       .  A
C822        C830   1.400       .  A
C823        C832   1.398       .  A
C823        C824   1.403       .  A
C824        C825   1.397       .  A
C824        H835   1.083       .  S
C825        C826   1.402       .  A
C825        H836   1.083       .  S
C826        C827   1.400       .  A
C827        C828   1.404       .  A
C827        H837   1.084       .  S
C828        C829   1.404       .  A
C829        H838   1.084       .  S
C830        C831   1.404       .  A
C830        H839   1.084       .  S
C831        C832   1.404       .  A
C832        H840   1.084       .  S
C841        C842   1.399       .  A
C841        C846   1.404       .  A
C841        H857   1.084       .  S
C842        C843   1.403       .  A
C842        H858   1.083       .  S
C843        C853   1.407       .  A
C843        C844   1.414       .  A
C844        C850   1.409       .  A
C844        C845   1.414       .  A
C845        C847   1.414       .  A
C845        C846   1.409       .  A
C846        C854   1.402       .  A
C847        C856   1.408       .  A
C847        C848   1.404       .  A
C848        C849   1.401       .  A
C848        H859   1.083       .  S
C849        C850   1.405       .  A
C849        H860   1.083       .  S
C850        C851   1.404       .  A
C851        C852   1.410       .  A
C851        H861   1.084       .  S
C852        C853   1.406       .  A
C853        H862   1.084       .  S
C854        C855   1.408       .  A
C854        H863   1.084       .  S
C855        C856   1.407       .  A
C856        H864   1.084       .  S
C865        C866   1.401       .  A
C865        C870   1.404       .  A
C865        H881   1.083       .  S
C866        C867   1.405       .  A
C866        H882   1.083       .  S
C867        C877   1.406       .  A
C867        C868   1.412       .  A
C868        C874   1.411       .  A
C868        C869   1.410       .  A
C869        C871   1.411       .  A
C869        C870   1.412       .  A
C870        C878   1.406       .  A
C871        C880   1.395       .  A
C871        C872   1.402       .  A
C872        C873   1.394       .  A
C872        H883   1.084       .  S
C873        C874   1.402       .  A
C873        H884   1.084       .  S
C874        C875   1.396       .  A
C875        C876   1.404       .  A
C875        H885   1.084       .  S
C876        C877   1.407       .  A
C877        H886   1.084       .  S
C878        C879   1.407       .  A
C878        H887   1.084       .  S
C879        C880   1.403       .  A
C880        H888   1.085       .  S
C889        C890   1.400       .  A
C889        C894   1.404       .  A
C889        H905   1.083       .  S
C890        C891   1.403       .  A
C890        H906   1.084       .  S
C891        C901   1.407       .  A
C891        C892   1.413       .  A
C892        C898   1.410       .  A
C892        C893   1.414       .  A
C893        C895   1.413       .  A
C893        C894   1.410       .  A
C894        C902   1.403       .  A
C895        C904   1.407       .  A
C895        C896   1.404       .  A
C896        C897   1.400       .  A
C896        H907   1.083       .  S
C897        C898   1.405       .  A
C897        H908   1.083       .  S
C898        C899   1.404       .  A
C899        C900   1.410       .  A
C899        H909   1.084       .  S
C900        C901   1.406       .  A
C901        H910   1.084       .  S
C902        C903   1.408       .  A
C902        H911   1.084       .  S
C903        C904   1.407       .  A
C904        H912   1.084       .  S
C913        C914   1.395   1_554  A
C913        C918   1.402       .  A
C913        H929   1.084       .  S
C914        C915   1.402       .  A
C914        H930   1.084       .  S
C915        C925   1.397       .  A
C915        C916   1.412       .  A
C916        C922   1.411       .  A
C916        C917   1.407   1_556  A
C917        C919   1.412       .  A
C917        C918   1.411       .  A
C918        C926   1.396       .  A
C919        C928   1.402       .  A
C919        C920   1.403       .  A
C920        C921   1.398   1_554  A
C920        H931   1.084       .  S
C921        C922   1.403       .  A
C921        H932   1.084       .  S
C922        C923   1.400       .  A
C923        C924   1.405       .  A
C923        H933   1.084       .  S
C924        C925   1.403       .  A
C925        H934   1.084       .  S
C926        C927   1.404       .  A
C926        H935   1.084       .  S
C927        C928   1.404       .  A
C928        H936   1.084       .  S
C937        C938   1.400       .  A
C937        C942   1.404       .  A
C937        H953   1.084       .  S
C938        C939   1.405       .  A
C938        H954   1.083       .  S
C939        C949   1.403       .  A
C939        C940   1.410       .  A
C940        C946   1.413       .  A
C940        C941   1.415       .  A
C941        C943   1.410       .  A
C941        C942   1.413       .  A
C942        C950   1.408       .  A
C943        C952   1.404       .  A
C943        C944   1.405       .  A
C944        C945   1.400       .  A
C944        H955   1.083       .  S
C945        C946   1.403       .  A
C945        H956   1.083       .  S
C946        C947   1.407       .  A
C947        C948   1.406       .  A
C947        H957   1.084       .  S
C948        C949   1.410       .  A
C949        H958   1.084       .  S
C950        C951   1.407       .  A
C950        H959   1.084       .  S
C951        C952   1.409       .  A
C952        H960   1.084       .  S
C961        C962   1.398   1_554  A
C961        C966   1.403       .  A
C961        H977   1.084       .  S
C962        C963   1.403       .  A
C962        H978   1.084       .  S
C963        C973   1.400       .  A
C963        C964   1.412       .  A
C964        C970   1.411       .  A
C964        C965   1.408   1_556  A
C965        C967   1.411       .  A
C965        C966   1.412       .  A
C966        C974   1.401       .  A
C967        C976   1.398       .  A
C967        C968   1.402       .  A
C968        C969   1.396   1_554  A
C968        H979   1.084       .  S
C969        C970   1.403       .  A
C969        H980   1.083       .  S
C970        C971   1.398       .  A
C971        C972   1.405       .  A
C971        H981   1.084       .  S
C972        C973   1.404       .  A
C973        H982   1.084       .  S
C974        C975   1.405       .  A
C974        H983   1.084       .  S
C975        C976   1.404       .  A
C976        H984   1.084       .  S
C985        C986   1.399       .  A
C985        C990   1.405       .  A
C985       H1001   1.083       .  S
C986        C987   1.403       .  A
C986       H1002   1.084       .  S
C987        C997   1.406       .  A
C987        C988   1.414       .  A
C988        C994   1.409       .  A
C988        C989   1.413       .  A
C989        C991   1.414       .  A
C989        C990   1.409       .  A
C990        C998   1.402       .  A
C991       C1000   1.406       .  A
C991        C992   1.403       .  A
C992        C993   1.399       .  A
C992       H1003   1.084       .  S
C993        C994   1.404       .  A
C993       H1004   1.083       .  S
C994        C995   1.400       .  A
C995        C996   1.408       .  A
C995       H1005   1.084       .  S
C996        C997   1.404       .  A
C997       H1006   1.084       .  S
C998        C999   1.409       .  A
C998       H1007   1.084       .  S
C999       C1000   1.405       .  A
C1000      H1008   1.084       .  S
C1009      C1010   1.398       .  A
C1009      C1014   1.404       .  A
C1009      H1025   1.084       .  S
C1010      C1011   1.403       .  A
C1010      H1026   1.084       .  S
C1011      C1021   1.404       .  A
C1011      C1012   1.413       .  A
C1012      C1018   1.410       .  A
C1012      C1013   1.413       .  A
C1013      C1015   1.413       .  A
C1013      C1014   1.410       .  A
C1014      C1022   1.400       .  A
C1015      C1024   1.408       .  A
C1015      C1016   1.404       .  A
C1016      C1017   1.401       .  A
C1016      H1027   1.084       .  S
C1017      C1018   1.405       .  A
C1017      H1028   1.083       .  S
C1018      C1019   1.406       .  A
C1019      C1020   1.410       .  A
C1019      H1029   1.084       .  S
C1020      C1021   1.405       .  A
C1021      H1030   1.084       .  S
C1022      C1023   1.408       .  A
C1022      H1031   1.084       .  S
C1023      C1024   1.406       .  A
C1024      H1032   1.084       .  S
C1033      C1034   1.400       .  A
C1033      C1038   1.403       .  A
C1033      H1049   1.083       .  S
C1034      C1035   1.405       .  A
C1034      H1050   1.083       .  S
C1035      C1045   1.403       .  A
C1035      C1036   1.409       .  A
C1036      C1042   1.414       .  A
C1036      C1037   1.414       .  A
C1037      C1039   1.409       .  A
C1037      C1038   1.414       .  A
C1038      C1046   1.408       .  A
C1039      C1048   1.403       .  A
C1039      C1040   1.405       .  A
C1040      C1041   1.400       .  A
C1040      H1051   1.084       .  S
C1041      C1042   1.403       .  A
C1041      H1052   1.084       .  S
C1042      C1043   1.407       .  A
C1043      C1044   1.405       .  A
C1043      H1053   1.084       .  S
C1044      C1045   1.409       .  A
C1045      H1054   1.084       .  S
C1046      C1047   1.405       .  A
C1046      H1055   1.084       .  S
C1047      C1048   1.409       .  A
C1048      H1056   1.084       .  S
C1057      C1058   1.398       .  A
C1057      C1062   1.403       .  A
C1057      H1073   1.084       .  S
C1058      C1059   1.403       .  A
C1058      H1074   1.083       .  S
C1059      C1069   1.402       .  A
C1059      C1060   1.412       .  A
C1060      C1066   1.411       .  A
C1060      C1061   1.409       .  A
C1061      C1063   1.412       .  A
C1061      C1062   1.411       .  A
C1062      C1070   1.400       .  A
C1063      C1072   1.399       .  A
C1063      C1064   1.403       .  A
C1064      C1065   1.397       .  A
C1064      H1075   1.084       .  S
C1065      C1066   1.403       .  A
C1065      H1076   1.084       .  S
C1066      C1067   1.398       .  A
C1067      C1068   1.405       .  A
C1067      H1077   1.084       .  S
C1068      C1069   1.404       .  A
C1069      H1078   1.084       .  S
C1070      C1071   1.404       .  A
C1070      H1079   1.084       .  S
C1071      C1072   1.405       .  A
C1072      H1080   1.084       .  S
C1081      C1082   1.399       .  A
C1081      C1086   1.404       .  A
C1081      H1097   1.083       .  S
C1082      C1083   1.403       .  A
C1082      H1098   1.083       .  S
C1083      C1093   1.405       .  A
C1083      C1084   1.413       .  A
C1084      C1090   1.410       .  A
C1084      C1085   1.414       .  A
C1085      C1087   1.414       .  A
C1085      C1086   1.409       .  A
C1086      C1094   1.401       .  A
C1087      C1096   1.408       .  A
C1087      C1088   1.404       .  A
C1088      C1089   1.401       .  A
C1088      H1099   1.083       .  S
C1089      C1090   1.405       .  A
C1089      H1100   1.083       .  S
C1090      C1091   1.404       .  A
C1091      C1092   1.410       .  A
C1091      H1101   1.084       .  S
C1092      C1093   1.405       .  A
C1093      H1102   1.084       .  S
C1094      C1095   1.408       .  A
C1094      H1103   1.084       .  S
C1095      C1096   1.406       .  A
C1096      H1104   1.084       .  S
C1105      C1106   1.396       .  A
C1105      C1110   1.403   1_565  A
C1105      H1121   1.084   1_565  S
C1106      C1107   1.402       .  A
C1106      H1122   1.084       .  S
C1107      C1117   1.398       .  A
C1107      C1108   1.412       .  A
C1108      C1114   1.411       .  A
C1108      C1109   1.407       .  A
C1109      C1111   1.412   1_565  A
C1109      C1110   1.411   1_565  A
C1110      C1118   1.398       .  A
C1111      C1120   1.399       .  A
C1111      C1112   1.403   1_545  A
C1112      C1113   1.397       .  A
C1112      H1123   1.084   1_565  S
C1113      C1114   1.403       .  A
C1113      H1124   1.084       .  S
C1114      C1115   1.398       .  A
C1115      C1116   1.404       .  A
C1115      H1125   1.084       .  S
C1116      C1117   1.403       .  A
C1117      H1126   1.084       .  S
C1118      C1119   1.404       .  A
C1118      H1127   1.084       .  S
C1119      C1120   1.404       .  A
C1120      H1128   1.084       .  S
C1129      C1130   1.403       .  A
C1129      C1134   1.405       .  A
C1129      H1145   1.083       .  S
C1130      C1131   1.406       .  A
C1130      H1146   1.083       .  S
C1131      C1141   1.407       .  A
C1131      C1132   1.410       .  A
C1132      C1138   1.413       .  A
C1132      C1133   1.415       .  A
C1133      C1135   1.409       .  A
C1133      C1134   1.414       .  A
C1134      C1142   1.412       .  A
C1135      C1144   1.399       .  A
C1135      C1136   1.403       .  A
C1136      C1137   1.397       .  A
C1136      H1147   1.084       .  S
C1137      C1138   1.402       .  A
C1137      H1148   1.084       .  S
C1138      C1139   1.405       .  A
C1139      C1140   1.405       .  A
C1139      H1149   1.084       .  S
C1140      C1141   1.410       .  A
C1141      H1150   1.084       .  S
C1142      C1143   1.408       .  A
C1142      H1151   1.084       .  S
C1143      C1144   1.408       .  A
C1144      H1152   1.084       .  S
C1153      C1154   1.399       .  A
C1153      C1158   1.404       .  A
C1153      H1169   1.084       .  S
C1154      C1155   1.404       .  A
C1154      H1170   1.084       .  S
C1155      C1165   1.403       .  A
C1155      C1156   1.411       .  A
C1156      C1162   1.412       .  A
C1156      C1157   1.413       .  A
C1157      C1159   1.411       .  A
C1157      C1158   1.412       .  A
C1158      C1166   1.404       .  A
C1159      C1168   1.404       .  A
C1159      C1160   1.404       .  A
C1160      C1161   1.400       .  A
C1160      H1171   1.084       .  S
C1161      C1162   1.404       .  A
C1161      H1172   1.083       .  S
C1162      C1163   1.407       .  A
C1163      C1164   1.407       .  A
C1163      H1173   1.084       .  S
C1164      C1165   1.408       .  A
C1165      H1174   1.084       .  S
C1166      C1167   1.407       .  A
C1166      H1175   1.084       .  S
C1167      C1168   1.406       .  A
C1168      H1176   1.084       .  S
C1177      C1178   1.398       .  A
C1177      C1182   1.403       .  A
C1177      H1193   1.084       .  S
C1178      C1179   1.403       .  A
C1178      H1194   1.084       .  S
C1179      C1189   1.400       .  A
C1179      C1180   1.411       .  A
C1180      C1186   1.412       .  A
C1180      C1181   1.409       .  A
C1181      C1183   1.411       .  A
C1181      C1182   1.412       .  A
C1182      C1190   1.401       .  A
C1183      C1192   1.398       .  A
C1183      C1184   1.403       .  A
C1184      C1185   1.397       .  A
C1184      H1195   1.084       .  S
C1185      C1186   1.403       .  A
C1185      H1196   1.083       .  S
C1186      C1187   1.401       .  A
C1187      C1188   1.405       .  A
C1187      H1197   1.084       .  S
C1188      C1189   1.405       .  A
C1189      H1198   1.084       .  S
C1190      C1191   1.404       .  A
C1190      H1199   1.084       .  S
C1191      C1192   1.405       .  A
C1192      H1200   1.084       .  S
C1201      C1202   1.400       .  A
C1201      C1206   1.403       .  A
C1201      H1217   1.083       .  S
C1202      C1203   1.405       .  A
C1202      H1218   1.084       .  S
C1203      C1213   1.404       .  A
C1203      C1204   1.409       .  A
C1204      C1210   1.414       .  A
C1204      C1205   1.415       .  A
C1205      C1207   1.410       .  A
C1205      C1206   1.414       .  A
C1206      C1214   1.407       .  A
C1207      C1216   1.404       .  A
C1207      C1208   1.405       .  A
C1208      C1209   1.401       .  A
C1208      H1219   1.083       .  S
C1209      C1210   1.404       .  A
C1209      H1220   1.083       .  S
C1210      C1211   1.409       .  A
C1211      C1212   1.407       .  A
C1211      H1221   1.084       .  S
C1212      C1213   1.409       .  A
C1213      H1222   1.084       .  S
C1214      C1215   1.406       .  A
C1214      H1223   1.084       .  S
C1215      C1216   1.409       .  A
C1216      H1224   1.084       .  S
C1225      C1226   1.401       .  A
C1225      C1230   1.404       .  A
C1225      H1241   1.083       .  S
C1226      C1227   1.405       .  A
C1226      H1242   1.084       .  S
C1227      C1237   1.404       .  A
C1227      C1228   1.410       .  A
C1228      C1234   1.413       .  A
C1228      C1229   1.414       .  A
C1229      C1231   1.410       .  A
C1229      C1230   1.413       .  A
C1230      C1238   1.407       .  A
C1231      C1240   1.402       .  A
C1231      C1232   1.404       .  A
C1232      C1233   1.399       .  A
C1232      H1243   1.084       .  S
C1233      C1234   1.403       .  A
C1233      H1244   1.083       .  S
C1234      C1235   1.407       .  A
C1235      C1236   1.405       .  A
C1235      H1245   1.084       .  S
C1236      C1237   1.411       .  A
C1237      H1246   1.084       .  S
C1238      C1239   1.407       .  A
C1238      H1247   1.084       .  S
C1239      C1240   1.407       .  A
C1240      H1248   1.084       .  S
C1249      C1250   1.397       .  A
C1249      C1254   1.403   1_565  A
C1249      H1265   1.083   1_565  S
C1250      C1251   1.403       .  A
C1250      H1266   1.084       .  S
C1251      C1261   1.398       .  A
C1251      C1252   1.410       .  A
C1252      C1258   1.413       .  A
C1252      C1253   1.409       .  A
C1253      C1255   1.411   1_565  A
C1253      C1254   1.412   1_565  A
C1254      C1262   1.401       .  A
C1255      C1264   1.400       .  A
C1255      C1256   1.403   1_545  A
C1256      C1257   1.398       .  A
C1256      H1267   1.084   1_565  S
C1257      C1258   1.403       .  A
C1257      H1268   1.083       .  S
C1258      C1259   1.403       .  A
C1259      C1260   1.404       .  A
C1259      H1269   1.084       .  S
C1260      C1261   1.405       .  A
C1261      H1270   1.085       .  S
C1262      C1263   1.405       .  A
C1262      H1271   1.084       .  S
C1263      C1264   1.405       .  A
C1264      H1272   1.084       .  S
C1273      C1274   1.399       .  A
C1273      C1278   1.404       .  A
C1273      H1289   1.083       .  S
C1274      C1275   1.403       .  A
C1274      H1290   1.084       .  S
C1275      C1285   1.405       .  A
C1275      C1276   1.412       .  A
C1276      C1282   1.411       .  A
C1276      C1277   1.414       .  A
C1277      C1279   1.413       .  A
C1277      C1278   1.410       .  A
C1278      C1286   1.403       .  A
C1279      C1288   1.406       .  A
C1279      C1280   1.404       .  A
C1280      C1281   1.400       .  A
C1280      H1291   1.083       .  S
C1281      C1282   1.404       .  A
C1281      H1292   1.083       .  S
C1282      C1283   1.404       .  A
C1283      C1284   1.408       .  A
C1283      H1293   1.084       .  S
C1284      C1285   1.406       .  A
C1285      H1294   1.084       .  S
C1286      C1287   1.408       .  A
C1286      H1295   1.084       .  S
C1287      C1288   1.406       .  A
C1288      H1296   1.084       .  S
C1297      C1298   1.399       .  A
C1297      C1302   1.403       .  A
C1297      H1313   1.083       .  S
C1298      C1299   1.404       .  A
C1298      H1314   1.084       .  S
C1299      C1309   1.402       .  A
C1299      C1300   1.410       .  A
C1300      C1306   1.413       .  A
C1300      C1301   1.413       .  A
C1301      C1303   1.410       .  A
C1301      C1302   1.413       .  A
C1302      C1310   1.404       .  A
C1303      C1312   1.404       .  A
C1303      C1304   1.404       .  A
C1304      C1305   1.400       .  A
C1304      H1315   1.084       .  S
C1305      C1306   1.403       .  A
C1305      H1316   1.083       .  S
C1306      C1307   1.407       .  A
C1307      C1308   1.406       .  A
C1307      H1317   1.084       .  S
C1308      C1309   1.408       .  A
C1309      H1318   1.084       .  S
C1310      C1311   1.406       .  A
C1310      H1319   1.084       .  S
C1311      C1312   1.408       .  A
C1312      H1320   1.084       .  S
C1321      C1322   1.397       .  A
C1321      C1326   1.402       .  A
C1321      H1337   1.084       .  S
C1322      C1323   1.403       .  A
C1322      H1338   1.084       .  S
C1323      C1333   1.398       .  A
C1323      C1324   1.409       .  A
C1324      C1330   1.414       .  A
C1324      C1325   1.412       .  A
C1325      C1327   1.410       .  A
C1325      C1326   1.414       .  A
C1326      C1334   1.402       .  A
C1327      C1336   1.403       .  A
C1327      C1328   1.405       .  A
C1328      C1329   1.401       .  A
C1328      H1339   1.083       .  S
C1329      C1330   1.404       .  A
C1329      H1340   1.083       .  S
C1330      C1331   1.409       .  A
C1331      C1332   1.407       .  A
C1331      H1341   1.084       .  S
C1332      C1333   1.407       .  A
C1333      H1342   1.084       .  S
C1334      C1335   1.403       .  A
C1334      H1343   1.084       .  S
C1335      C1336   1.408       .  A
C1336      H1344   1.084       .  S
C1345      C1346   1.399       .  A
C1345      C1350   1.404       .  A
C1345      H1361   1.083       .  S
C1346      C1347   1.403       .  A
C1346      H1362   1.084       .  S
C1347      C1357   1.401       .  A
C1347      C1348   1.411       .  A
C1348      C1354   1.412       .  A
C1348      C1349   1.411       .  A
C1349      C1351   1.411       .  A
C1349      C1350   1.412       .  A
C1350      C1358   1.403       .  A
C1351      C1360   1.401       .  A
C1351      C1352   1.403       .  A
C1352      C1353   1.398       .  A
C1352      H1363   1.083       .  S
C1353      C1354   1.403       .  A
C1353      H1364   1.083       .  S
C1354      C1355   1.403       .  A
C1355      C1356   1.405       .  A
C1355      H1365   1.084       .  S
C1356      C1357   1.406       .  A
C1357      H1366   1.084       .  S
C1358      C1359   1.407       .  A
C1358      H1367   1.084       .  S
C1359      C1360   1.404       .  A
C1360      H1368   1.084       .  S
C1369      C1370   1.396       .  A
C1369      C1374   1.403       .  A
C1369      H1385   1.084       .  S
C1370      C1371   1.402       .  A
C1370      H1386   1.084       .  S
C1371      C1381   1.400       .  A
C1371      C1372   1.414       .  A
C1372      C1378   1.409       .  A
C1372      C1373   1.409       .  A
C1373      C1375   1.414       .  A
C1373      C1374   1.408       .  A
C1374      C1382   1.395       .  A
C1375      C1384   1.406       .  A
C1375      C1376   1.403       .  A
C1376      C1377   1.400       .  A
C1376      H1387   1.084       .  S
C1377      C1378   1.405       .  A
C1377      H1388   1.084       .  S
C1378      C1379   1.401       .  A
C1379      C1380   1.408       .  A
C1379      H1389   1.084       .  S
C1380      C1381   1.402       .  A
C1381      H1390   1.084       .  S
C1382      C1383   1.407       .  A
C1382      H1391   1.084       .  S
C1383      C1384   1.404       .  A
C1384      H1392   1.084       .  S
C1393      C1394   1.397   1_455  A
C1393      C1398   1.403       .  A
C1393      H1409   1.084       .  S
C1394      C1395   1.403       .  A
C1394      H1410   1.084       .  S
C1395      C1405   1.399       .  A
C1395      C1396   1.411       .  A
C1396      C1402   1.412       .  A
C1396      C1397   1.406   1_655  A
C1397      C1399   1.412       .  A
C1397      C1398   1.411       .  A
C1398      C1406   1.398       .  A
C1399      C1408   1.397       .  A
C1399      C1400   1.402       .  A
C1400      C1401   1.396   1_455  A
C1400      H1411   1.083       .  S
C1401      C1402   1.402       .  A
C1401      H1412   1.083       .  S
C1402      C1403   1.397       .  A
C1403      C1404   1.402       .  A
C1403      H1413   1.084       .  S
C1404      C1405   1.405       .  A
C1405      H1414   1.084       .  S
C1406      C1407   1.404       .  A
C1406      H1415   1.084       .  S
C1407      C1408   1.402       .  A
C1408      H1416   1.084       .  S
C1417      C1418   1.399       .  A
C1417      C1422   1.404       .  A
C1417      H1433   1.084       .  S
C1418      C1419   1.403       .  A
C1418      H1434   1.083       .  S
C1419      C1429   1.406       .  A
C1419      C1420   1.413       .  A
C1420      C1426   1.410       .  A
C1420      C1421   1.415       .  A
C1421      C1423   1.413       .  A
C1421      C1422   1.410       .  A
C1422      C1430   1.403       .  A
C1423      C1432   1.409       .  A
C1423      C1424   1.404       .  A
C1424      C1425   1.402       .  A
C1424      H1435   1.083       .  S
C1425      C1426   1.405       .  A
C1425      H1436   1.083       .  S
C1426      C1427   1.406       .  A
C1427      C1428   1.410       .  A
C1427      H1437   1.084       .  S
C1428      C1429   1.406       .  A
C1429      H1438   1.084       .  S
C1430      C1431   1.408       .  A
C1430      H1439   1.084       .  S
C1431      C1432   1.408       .  A
C1432      H1440   1.084       .  S
C1441      C1442   1.403       .  A
C1441      C1446   1.406       .  A
C1441      H1457   1.083       .  S
C1442      C1443   1.405       .  A
C1442      H1458   1.084       .  S
C1443      C1453   1.410       .  A
C1443      C1444   1.413       .  A
C1444      C1450   1.410       .  A
C1444      C1445   1.414       .  A
C1445      C1447   1.412       .  A
C1445      C1446   1.411       .  A
C1446      C1454   1.409       .  A
C1447      C1456   1.401       .  A
C1447      C1448   1.402       .  A
C1448      C1449   1.396       .  A
C1448      H1459   1.084       .  S
C1449      C1450   1.403       .  A
C1449      H1460   1.084       .  S
C1450      C1451   1.399       .  A
C1451      C1452   1.407       .  A
C1451      H1461   1.084       .  S
C1452      C1453   1.408       .  A
C1453      H1462   1.084       .  S
C1454      C1455   1.410       .  A
C1454      H1463   1.084       .  S
C1455      C1456   1.404       .  A
C1456      H1464   1.084       .  S
C1465      C1466   1.401       .  A
C1465      C1470   1.404       .  A
C1465      H1481   1.083       .  S
C1466      C1467   1.404       .  A
C1466      H1482   1.083       .  S
C1467      C1477   1.404       .  A
C1467      C1468   1.412       .  A
C1468      C1474   1.411       .  A
C1468      C1469   1.409       .  A
C1469      C1471   1.411       .  A
C1469      C1470   1.412       .  A
C1470      C1478   1.405       .  A
C1471      C1480   1.396       .  A
C1471      C1472   1.402       .  A
C1472      C1473   1.395       .  A
C1472      H1483   1.084       .  S
C1473      C1474   1.402       .  A
C1473      H1484   1.084       .  S
C1474      C1475   1.397       .  A
C1475      C1476   1.404       .  A
C1475      H1485   1.084       .  S
C1476      C1477   1.407       .  A
C1477      H1486   1.084       .  S
C1478      C1479   1.407       .  A
C1478      H1487   1.084       .  S
C1479      C1480   1.403       .  A
C1480      H1488   1.084       .  S
C1489      C1490   1.399       .  A
C1489      C1494   1.404       .  A
C1489      H1505   1.084       .  S
C1490      C1491   1.403       .  A
C1490      H1506   1.084       .  S
C1491      C1501   1.406       .  A
C1491      C1492   1.414       .  A
C1492      C1498   1.409       .  A
C1492      C1493   1.414       .  A
C1493      C1495   1.415       .  A
C1493      C1494   1.409       .  A
C1494      C1502   1.401       .  A
C1495      C1504   1.410       .  A
C1495      C1496   1.404       .  A
C1496      C1497   1.401       .  A
C1496      H1507   1.083       .  S
C1497      C1498   1.405       .  A
C1497      H1508   1.083       .  S
C1498      C1499   1.405       .  A
C1499      C1500   1.410       .  A
C1499      H1509   1.084       .  S
C1500      C1501   1.405       .  A
C1501      H1510   1.084       .  S
C1502      C1503   1.408       .  A
C1502      H1511   1.084       .  S
C1503      C1504   1.406       .  A
C1504      H1512   1.084       .  S
C1513      C1514   1.401       .  A
C1513      C1518   1.404       .  A
C1513      H1529   1.084       .  S
C1514      C1515   1.405       .  A
C1514      H1530   1.084       .  S
C1515      C1525   1.405       .  A
C1515      C1516   1.410       .  A
C1516      C1522   1.413       .  A
C1516      C1517   1.414       .  A
C1517      C1519   1.410       .  A
C1517      C1518   1.413       .  A
C1518      C1526   1.408       .  A
C1519      C1528   1.402       .  A
C1519      C1520   1.404       .  A
C1520      C1521   1.399       .  A
C1520      H1531   1.083       .  S
C1521      C1522   1.403       .  A
C1521      H1532   1.084       .  S
C1522      C1523   1.406       .  A
C1523      C1524   1.405       .  A
C1523      H1533   1.084       .  S
C1524      C1525   1.411       .  A
C1525      H1534   1.084       .  S
C1526      C1527   1.407       .  A
C1526      H1535   1.084       .  S
C1527      C1528   1.408       .  A
C1528      H1536   1.084       .  S
C1537      C1538   1.393       .  A
C1537      C1542   1.401   1_655  A
C1537      H1553   1.084   1_655  S
C1538      C1539   1.401       .  A
C1538      H1554   1.084       .  S
C1539      C1549   1.392       .  A
C1539      C1540   1.410       .  A
C1540      C1546   1.413       .  A
C1540      C1541   1.407       .  A
C1541      C1543   1.411   1_655  A
C1541      C1542   1.411   1_655  A
C1542      C1550   1.394       .  A
C1543      C1552   1.404       .  A
C1543      C1544   1.404   1_455  A
C1544      C1545   1.401       .  A
C1544      H1555   1.083   1_655  S
C1545      C1546   1.404       .  A
C1545      H1556   1.083       .  S
C1546      C1547   1.405       .  A
C1547      C1548   1.406       .  A
C1547      H1557   1.084       .  S
C1548      C1549   1.402       .  A
C1549      H1558   1.085       .  S
C1550      C1551   1.402       .  A
C1550      H1559   1.084       .  S
C1551      C1552   1.406       .  A
C1552      H1560   1.084       .  S
C1561      C1562   1.401       .  A
C1561      C1566   1.405       .  A
C1561      H1577   1.084       .  S
C1562      C1563   1.404       .  A
C1562      H1578   1.083       .  S
C1563      C1573   1.409       .  A
C1563      C1564   1.413       .  A
C1564      C1570   1.410       .  A
C1564      C1565   1.413       .  A
C1565      C1567   1.413       .  A
C1565      C1566   1.410       .  A
C1566      C1574   1.405       .  A
C1567      C1576   1.404       .  A
C1567      C1568   1.403       .  A
C1568      C1569   1.398       .  A
C1568      H1579   1.084       .  S
C1569      C1570   1.403       .  A
C1569      H1580   1.084       .  S
C1570      C1571   1.400       .  A
C1571      C1572   1.408       .  A
C1571      H1581   1.084       .  S
C1572      C1573   1.407       .  A
C1573      H1582   1.084       .  S
C1574      C1575   1.408       .  A
C1574      H1583   1.084       .  S
C1575      C1576   1.406       .  A
C1576      H1584   1.084       .  S
C1585      C1586   1.401       .  A
C1585      C1590   1.404       .  A
C1585      H1601   1.083       .  S
C1586      C1587   1.405       .  A
C1586      H1602   1.083       .  S
C1587      C1597   1.405       .  A
C1587      C1588   1.410       .  A
C1588      C1594   1.413       .  A
C1588      C1589   1.413       .  A
C1589      C1591   1.410       .  A
C1589      C1590   1.413       .  A
C1590      C1598   1.408       .  A
C1591      C1600   1.399       .  A
C1591      C1592   1.403       .  A
C1592      C1593   1.397       .  A
C1592      H1603   1.084       .  S
C1593      C1594   1.402       .  A
C1593      H1604   1.083       .  S
C1594      C1595   1.402       .  A
C1595      C1596   1.404       .  A
C1595      H1605   1.084       .  S
C1596      C1597   1.409       .  A
C1597      H1606   1.084       .  S
C1598      C1599   1.406       .  A
C1598      H1607   1.084       .  S
C1599      C1600   1.408       .  A
C1600      H1608   1.084       .  S
C1609      C1610   1.398       .  A
C1609      C1614   1.403       .  A
C1609      H1625   1.084       .  S
C1610      C1611   1.404       .  A
C1610      H1626   1.084       .  S
C1611      C1621   1.400       .  A
C1611      C1612   1.410       .  A
C1612      C1618   1.413       .  A
C1612      C1613   1.411       .  A
C1613      C1615   1.410       .  A
C1613      C1614   1.413       .  A
C1614      C1622   1.403       .  A
C1615      C1624   1.402       .  A
C1615      C1616   1.404       .  A
C1616      C1617   1.399       .  A
C1616      H1627   1.083       .  S
C1617      C1618   1.403       .  A
C1617      H1628   1.083       .  S
C1618      C1619   1.405       .  A
C1619      C1620   1.404       .  A
C1619      H1629   1.084       .  S
C1620      C1621   1.408       .  A
C1621      H1630   1.084       .  S
C1622      C1623   1.405       .  A
C1622      H1631   1.084       .  S
C1623      C1624   1.407       .  A
C1624      H1632   1.084       .  S
C1633      C1634   1.398       .  A
C1633      C1638   1.403       .  A
C1633      H1649   1.084       .  S
C1634      C1635   1.403       .  A
C1634      H1650   1.084       .  S
C1635      C1645   1.401       .  A
C1635      C1636   1.412       .  A
C1636      C1642   1.411       .  A
C1636      C1637   1.409       .  A
C1637      C1639   1.411       .  A
C1637      C1638   1.412       .  A
C1638      C1646   1.400       .  A
C1639      C1648   1.400       .  A
C1639      C1640   1.403       .  A
C1640      C1641   1.397       .  A
C1640      H1651   1.084       .  S
C1641      C1642   1.403       .  A
C1641      H1652   1.084       .  S
C1642      C1643   1.399       .  A
C1643      C1644   1.405       .  A
C1643      H1653   1.084       .  S
C1644      C1645   1.404       .  A
C1645      H1654   1.084       .  S
C1646      C1647   1.404       .  A
C1646      H1655   1.084       .  S
C1647      C1648   1.405       .  A
C1648      H1656   1.084       .  S
C1657      C1658   1.397       .  A
C1657      C1662   1.403       .  A
C1657      H1673   1.084       .  S
C1658      C1659   1.402       .  A
C1658      H1674   1.084       .  S
C1659      C1669   1.400       .  A
C1659      C1660   1.412       .  A
C1660      C1666   1.411       .  A
C1660      C1661   1.412       .  A
C1661      C1663   1.413       .  A
C1661      C1662   1.410       .  A
C1662      C1670   1.399       .  A
C1663      C1672   1.408       .  A
C1663      C1664   1.404       .  A
C1664      C1665   1.401       .  A
C1664      H1675   1.083       .  S
C1665      C1666   1.404       .  A
C1665      H1676   1.084       .  S
C1666      C1667   1.405       .  A
C1667      C1668   1.408       .  A
C1667      H1677   1.084       .  S
C1668      C1669   1.405       .  A
C1669      H1678   1.084       .  S
C1670      C1671   1.406       .  A
C1670      H1679   1.084       .  S
C1671      C1672   1.407       .  A
C1672      H1680   1.084       .  S
C1681      C1682   1.401       .  A
C1681      C1686   1.405       .  A
C1681      H1697   1.083       .  S
C1682      C1683   1.404       .  A
C1682      H1698   1.083       .  S
C1683      C1693   1.409       .  A
C1683      C1684   1.413       .  A
C1684      C1690   1.410       .  A
C1684      C1685   1.414       .  A
C1685      C1687   1.413       .  A
C1685      C1686   1.410       .  A
C1686      C1694   1.405       .  A
C1687      C1696   1.406       .  A
C1687      C1688   1.403       .  A
C1688      C1689   1.399       .  A
C1688      H1699   1.083       .  S
C1689      C1690   1.404       .  A
C1689      H1700   1.084       .  S
C1690      C1691   1.402       .  A
C1691      C1692   1.409       .  A
C1691      H1701   1.084       .  S
C1692      C1693   1.407       .  A
C1693      H1702   1.084       .  S
C1694      C1695   1.409       .  A
C1694      H1703   1.084       .  S
C1695      C1696   1.406       .  A
C1696      H1704   1.084       .  S
C1705      C1706   1.397   1_545  A
C1705      C1710   1.402       .  A
C1705      H1721   1.084       .  S
C1706      C1707   1.403       .  A
C1706      H1722   1.083       .  S
C1707      C1717   1.400       .  A
C1707      C1708   1.412       .  A
C1708      C1714   1.411       .  A
C1708      C1709   1.408   1_565  A
C1709      C1711   1.412       .  A
C1709      C1710   1.411       .  A
C1710      C1718   1.397       .  A
C1711      C1720   1.400       .  A
C1711      C1712   1.403       .  A
C1712      C1713   1.398   1_545  A
C1712      H1723   1.084       .  S
C1713      C1714   1.403       .  A
C1713      H1724   1.084       .  S
C1714      C1715   1.400       .  A
C1715      C1716   1.406       .  A
C1715      H1725   1.084       .  S
C1716      C1717   1.404       .  A
C1717      H1726   1.084       .  S
C1718      C1719   1.403       .  A
C1718      H1727   1.084       .  S
C1719      C1720   1.404       .  A
C1720      H1728   1.084       .  S
C1729      C1730   1.403       .  A
C1729      C1734   1.405       .  A
C1729      H1745   1.083       .  S
C1730      C1731   1.405       .  A
C1730      H1746   1.083       .  S
C1731      C1741   1.412       .  A
C1731      C1732   1.414       .  A
C1732      C1738   1.409       .  A
C1732      C1733   1.415       .  A
C1733      C1735   1.413       .  A
C1733      C1734   1.410       .  A
C1734      C1742   1.407       .  A
C1735      C1744   1.405       .  A
C1735      C1736   1.402       .  A
C1736      C1737   1.398       .  A
C1736      H1747   1.084       .  S
C1737      C1738   1.404       .  A
C1737      H1748   1.084       .  S
C1738      C1739   1.401       .  A
C1739      C1740   1.409       .  A
C1739      H1749   1.084       .  S
C1740      C1741   1.407       .  A
C1741      H1750   1.084       .  S
C1742      C1743   1.410       .  A
C1742      H1751   1.084       .  S
C1743      C1744   1.405       .  A
C1744      H1752   1.084       .  S
C1753      C1754   1.401       .  A
C1753      C1758   1.405       .  A
C1753      H1769   1.084       .  S
C1754      C1755   1.404       .  A
C1754      H1770   1.083       .  S
C1755      C1765   1.409       .  A
C1755      C1756   1.414       .  A
C1756      C1762   1.409       .  A
C1756      C1757   1.413       .  A
C1757      C1759   1.414       .  A
C1757      C1758   1.409       .  A
C1758      C1766   1.403       .  A
C1759      C1768   1.406       .  A
C1759      C1760   1.402       .  A
C1760      C1761   1.398       .  A
C1760      H1771   1.083       .  S
C1761      C1762   1.404       .  A
C1761      H1772   1.084       .  S
C1762      C1763   1.400       .  A
C1763      C1764   1.407       .  A
C1763      H1773   1.084       .  S
C1764      C1765   1.406       .  A
C1765      H1774   1.084       .  S
C1766      C1767   1.410       .  A
C1766      H1775   1.084       .  S
C1767      C1768   1.404       .  A
C1768      H1776   1.084       .  S
C1777      C1778   1.401       .  A
C1777      C1782   1.404       .  A
C1777      H1793   1.083       .  S
C1778      C1779   1.404       .  A
C1778      H1794   1.083       .  S
C1779      C1789   1.405       .  A
C1779      C1780   1.412       .  A
C1780      C1786   1.411       .  A
C1780      C1781   1.409       .  A
C1781      C1783   1.411       .  A
C1781      C1782   1.412       .  A
C1782      C1790   1.406       .  A
C1783      C1792   1.395       .  A
C1783      C1784   1.402       .  A
C1784      C1785   1.394       .  A
C1784      H1795   1.084       .  S
C1785      C1786   1.401       .  A
C1785      H1796   1.084       .  S
C1786      C1787   1.395       .  A
C1787      C1788   1.403       .  A
C1787      H1797   1.084       .  S
C1788      C1789   1.407       .  A
C1789      H1798   1.084       .  S
C1790      C1791   1.406       .  A
C1790      H1799   1.084       .  S
C1791      C1792   1.404       .  A
C1792      H1800   1.085       .  S
C1801      C1802   1.400       .  A
C1801      C1806   1.404       .  A
C1801      H1817   1.083       .  S
C1802      C1803   1.404       .  A
C1802      H1818   1.083       .  S
C1803      C1813   1.403       .  A
C1803      C1804   1.409       .  A
C1804      C1810   1.414       .  A
C1804      C1805   1.416       .  A
C1805      C1807   1.409       .  A
C1805      C1806   1.414       .  A
C1806      C1814   1.409       .  A
C1807      C1816   1.405       .  A
C1807      C1808   1.405       .  A
C1808      C1809   1.401       .  A
C1808      H1819   1.083       .  S
C1809      C1810   1.404       .  A
C1809      H1820   1.083       .  S
C1810      C1811   1.410       .  A
C1811      C1812   1.408       .  A
C1811      H1821   1.084       .  S
C1812      C1813   1.408       .  A
C1813      H1822   1.084       .  S
C1814      C1815   1.407       .  A
C1814      H1823   1.084       .  S
C1815      C1816   1.411       .  A
C1816      H1824   1.084       .  S
C1825      C1826   1.400       .  A
C1825      C1830   1.403       .  A
C1825      H1841   1.083       .  S
C1826      C1827   1.404       .  A
C1826      H1842   1.083       .  S
C1827      C1837   1.404       .  A
C1827      C1828   1.410       .  A
C1828      C1834   1.413       .  A
C1828      C1829   1.415       .  A
C1829      C1831   1.410       .  A
C1829      C1830   1.414       .  A
C1830      C1838   1.408       .  A
C1831      C1840   1.404       .  A
C1831      C1832   1.405       .  A
C1832      C1833   1.400       .  A
C1832      H1843   1.083       .  S
C1833      C1834   1.404       .  A
C1833      H1844   1.083       .  S
C1834      C1835   1.408       .  A
C1835      C1836   1.406       .  A
C1835      H1845   1.084       .  S
C1836      C1837   1.409       .  A
C1837      H1846   1.084       .  S
C1838      C1839   1.406       .  A
C1838      H1847   1.084       .  S
C1839      C1840   1.410       .  A
C1840      H1848   1.084       .  S
C1849      C1850   1.397       .  A
C1849      C1854   1.402       .  A
C1849      H1865   1.083       .  S
C1850      C1851   1.403       .  A
C1850      H1866   1.084       .  S
C1851      C1861   1.399       .  A
C1851      C1852   1.409       .  A
C1852      C1858   1.414       .  A
C1852      C1853   1.413       .  A
C1853      C1855   1.409       .  A
C1853      C1854   1.414       .  A
C1854      C1862   1.404       .  A
C1855      C1864   1.404       .  A
C1855      C1856   1.405       .  A
C1856      C1857   1.401       .  A
C1856      H1867   1.084       .  S
C1857      C1858   1.404       .  A
C1857      H1868   1.083       .  S
C1858      C1859   1.409       .  A
C1859      C1860   1.407       .  A
C1859      H1869   1.084       .  S
C1860      C1861   1.406       .  A
C1861      H1870   1.084       .  S
C1862      C1863   1.404       .  A
C1862      H1871   1.084       .  S
C1863      C1864   1.410       .  A
C1864      H1872   1.084       .  S
C1873      C1874   1.397   1_545  A
C1873      C1878   1.403       .  A
C1873      H1889   1.084       .  S
C1874      C1875   1.403       .  A
C1874      H1890   1.084       .  S
C1875      C1885   1.401       .  A
C1875      C1876   1.411       .  A
C1876      C1882   1.412       .  A
C1876      C1877   1.412   1_565  A
C1877      C1879   1.412       .  A
C1877      C1878   1.411       .  A
C1878      C1886   1.400       .  A
C1879      C1888   1.405       .  A
C1879      C1880   1.404       .  A
C1880      C1881   1.400   1_545  A
C1880      H1891   1.083       .  S
C1881      C1882   1.404       .  A
C1881      H1892   1.084       .  S
C1882      C1883   1.405       .  A
C1883      C1884   1.407       .  A
C1883      H1893   1.084       .  S
C1884      C1885   1.406       .  A
C1885      H1894   1.084       .  S
C1886      C1887   1.405       .  A
C1886      H1895   1.084       .  S
C1887      C1888   1.407       .  A
C1888      H1896   1.084       .  S
C1897      C1898   1.401       .  A
C1897      C1902   1.404       .  A
C1897      H1913   1.083       .  S
C1898      C1899   1.405       .  A
C1898      H1914   1.083       .  S
C1899      C1909   1.406       .  A
C1899      C1900   1.410       .  A
C1900      C1906   1.414       .  A
C1900      C1901   1.416       .  A
C1901      C1903   1.410       .  A
C1901      C1902   1.414       .  A
C1902      C1910   1.409       .  A
C1903      C1912   1.404       .  A
C1903      C1904   1.404       .  A
C1904      C1905   1.401       .  A
C1904      H1915   1.083       .  S
C1905      C1906   1.404       .  A
C1905      H1916   1.083       .  S
C1906      C1907   1.409       .  A
C1907      C1908   1.407       .  A
C1907      H1917   1.084       .  S
C1908      C1909   1.410       .  A
C1909      H1918   1.084       .  S
C1910      C1911   1.407       .  A
C1910      H1919   1.084       .  S
C1911      C1912   1.409       .  A
C1912      H1920   1.084       .  S
C1921      C1922   1.401       .  A
C1921      C1926   1.405       .  A
C1921      H1937   1.083       .  S
C1922      C1923   1.404       .  A
C1922      H1938   1.083       .  S
C1923      C1933   1.410       .  A
C1923      C1924   1.414       .  A
C1924      C1930   1.409       .  A
C1924      C1925   1.416       .  A
C1925      C1927   1.414       .  A
C1925      C1926   1.409       .  A
C1926      C1934   1.405       .  A
C1927      C1936   1.409       .  A
C1927      C1928   1.403       .  A
C1928      C1929   1.401       .  A
C1928      H1939   1.083       .  S
C1929      C1930   1.405       .  A
C1929      H1940   1.083       .  S
C1930      C1931   1.405       .  A
C1931      C1932   1.411       .  A
C1931      H1941   1.084       .  S
C1932      C1933   1.407       .  A
C1933      H1942   1.084       .  S
C1934      C1935   1.410       .  A
C1934      H1943   1.084       .  S
C1935      C1936   1.406       .  A
C1936      H1944   1.084       .  S
C1945      C1946   1.397       .  A
C1945      C1950   1.402       .  A
C1945      H1961   1.084       .  S
C1946      C1947   1.403       .  A
C1946      H1962   1.083       .  S
C1947      C1957   1.398       .  A
C1947      C1948   1.409       .  A
C1948      C1954   1.414       .  A
C1948      C1949   1.413       .  A
C1949      C1951   1.409       .  A
C1949      C1950   1.414       .  A
C1950      C1958   1.403       .  A
C1951      C1960   1.403       .  A
C1951      C1952   1.405       .  A
C1952      C1953   1.401       .  A
C1952      H1963   1.084       .  S
C1953      C1954   1.404       .  A
C1953      H1964   1.084       .  S
C1954      C1955   1.410       .  A
C1955      C1956   1.407       .  A
C1955      H1965   1.084       .  S
C1956      C1957   1.407       .  A
C1957      H1966   1.084       .  S
C1958      C1959   1.403       .  A
C1958      H1967   1.084       .  S
C1959      C1960   1.410       .  A
C1960      H1968   1.084       .  S
C1969      C1970   1.395       .  A
C1969      C1974   1.402       .  A
C1969      H1985   1.084       .  S
C1970      C1971   1.402       .  A
C1970      H1986   1.084       .  S
C1971      C1981   1.396       .  A
C1971      C1972   1.411       .  A
C1972      C1978   1.412       .  A
C1972      C1973   1.409       .  A
C1973      C1975   1.411       .  A
C1973      C1974   1.412       .  A
C1974      C1982   1.397       .  A
C1975      C1984   1.404       .  A
C1975      C1976   1.404       .  A
C1976      C1977   1.401       .  A
C1976      H1987   1.083       .  S
C1977      C1978   1.404       .  A
C1977      H1988   1.084       .  S
C1978      C1979   1.405       .  A
C1979      C1980   1.407       .  A
C1979      H1989   1.084       .  S
C1980      C1981   1.404       .  A
C1981      H1990   1.084       .  S
C1982      C1983   1.403       .  A
C1982      H1991   1.084       .  S
C1983      C1984   1.407       .  A
C1984      H1992   1.084       .  S
C1993      C1994   1.400       .  A
C1993      C1998   1.404       .  A
C1993      H2009   1.083       .  S
C1994      C1995   1.403       .  A
C1994      H2010   1.083       .  S
C1995      C2005   1.408       .  A
C1995      C1996   1.414       .  A
C1996      C2002   1.410       .  A
C1996      C1997   1.415       .  A
C1997      C1999   1.414       .  A
C1997      C1998   1.410       .  A
C1998      C2006   1.404       .  A
C1999      C2008   1.408       .  A
C1999      C2000   1.404       .  A
C2000      C2001   1.401       .  A
C2000      H2011   1.084       .  S
C2001      C2002   1.405       .  A
C2001      H2012   1.083       .  S
C2002      C2003   1.404       .  A
C2003      C2004   1.409       .  A
C2003      H2013   1.084       .  S
C2004      C2005   1.406       .  A
C2005      H2014   1.084       .  S
C2006      C2007   1.409       .  A
C2006      H2015   1.084       .  S
C2007      C2008   1.406       .  A
C2008      H2016   1.084       .  S
C2017      C2018   1.397       .  A
C2017      C2022   1.403       .  A
C2017      H2033   1.084       .  S
C2018      C2019   1.402       .  A
C2018      H2034   1.083       .  S
C2019      C2029   1.403       .  A
C2019      C2020   1.414       .  A
C2020      C2026   1.408       .  A
C2020      C2021   1.410       .  A
C2021      C2023   1.414       .  A
C2021      C2022   1.408       .  A
C2022      C2030   1.396       .  A
C2023      C2032   1.405       .  A
C2023      C2024   1.403       .  A
C2024      C2025   1.399       .  A
C2024      H2035   1.084       .  S
C2025      C2026   1.404       .  A
C2025      H2036   1.084       .  S
C2026      C2027   1.399       .  A
C2027      C2028   1.408       .  A
C2027      H2037   1.084       .  S
C2028      C2029   1.403       .  A
C2029      H2038   1.084       .  S
C2030      C2031   1.407       .  A
C2030      H2039   1.084       .  S
C2031      C2032   1.404       .  A
C2032      H2040   1.084       .  S
C2041      C2042   1.397   1_554  A
C2041      C2046   1.403       .  A
C2041      H2057   1.084       .  S
C2042      C2043   1.403       .  A
C2042      H2058   1.084       .  S
C2043      C2053   1.399       .  A
C2043      C2044   1.412       .  A
C2044      C2050   1.411       .  A
C2044      C2045   1.406   1_556  A
C2045      C2047   1.412       .  A
C2045      C2046   1.411       .  A
C2046      C2054   1.398       .  A
C2047      C2056   1.398       .  A
C2047      C2048   1.402       .  A
C2048      C2049   1.396   1_554  A
C2048      H2059   1.084       .  S
C2049      C2050   1.402       .  A
C2049      H2060   1.084       .  S
C2050      C2051   1.396       .  A
C2051      C2052   1.403       .  A
C2051      H2061   1.085       .  S
C2052      C2053   1.404       .  A
C2053      H2062   1.084       .  S
C2054      C2055   1.404       .  A
C2054      H2063   1.084       .  S
C2055      C2056   1.403       .  A
C2056      H2064   1.084       .  S
C2065      C2066   1.398       .  A
C2065      C2070   1.403       .  A
C2065      H2081   1.083       .  S
C2066      C2067   1.403       .  A
C2066      H2082   1.084       .  S
C2067      C2077   1.399       .  A
C2067      C2068   1.409       .  A
C2068      C2074   1.414       .  A
C2068      C2069   1.412       .  A
C2069      C2071   1.410       .  A
C2069      C2070   1.414       .  A
C2070      C2078   1.405       .  A
C2071      C2080   1.402       .  A
C2071      C2072   1.404       .  A
C2072      C2073   1.399       .  A
C2072      H2083   1.083       .  S
C2073      C2074   1.403       .  A
C2073      H2084   1.084       .  S
C2074      C2075   1.405       .  A
C2075      C2076   1.405       .  A
C2075      H2085   1.084       .  S
C2076      C2077   1.407       .  A
C2077      H2086   1.084       .  S
C2078      C2079   1.404       .  A
C2078      H2087   1.084       .  S
C2079      C2080   1.408       .  A
C2080      H2088   1.084       .  S
C2089      C2090   1.397       .  A
C2089      C2094   1.404       .  A
C2089      H2105   1.083       .  S
C2090      C2091   1.402       .  A
C2090      H2106   1.084       .  S
C2091      C2101   1.402       .  A
C2091      C2092   1.414       .  A
C2092      C2098   1.410       .  A
C2092      C2093   1.411       .  A
C2093      C2095   1.414       .  A
C2093      C2094   1.409       .  A
C2094      C2102   1.398       .  A
C2095      C2104   1.406       .  A
C2095      C2096   1.403       .  A
C2096      C2097   1.399       .  A
C2096      H2107   1.083       .  S
C2097      C2098   1.404       .  A
C2097      H2108   1.083       .  S
C2098      C2099   1.401       .  A
C2099      C2100   1.407       .  A
C2099      H2109   1.084       .  S
C2100      C2101   1.402       .  A
C2101      H2110   1.084       .  S
C2102      C2103   1.407       .  A
C2102      H2111   1.084       .  S
C2103      C2104   1.405       .  A
C2104      H2112   1.084       .  S
C2113      C2114   1.399       .  A
C2113      C2118   1.404       .  A
C2113      H2129   1.083       .  S
C2114      C2115   1.403       .  A
C2114      H2130   1.083       .  S
C2115      C2125   1.406       .  A
C2115      C2116   1.414       .  A
C2116      C2122   1.409       .  A
C2116      C2117   1.412       .  A
C2117      C2119   1.414       .  A
C2117      C2118   1.409       .  A
C2118      C2126   1.401       .  A
C2119      C2128   1.405       .  A
C2119      C2120   1.403       .  A
C2120      C2121   1.399       .  A
C2120      H2131   1.084       .  S
C2121      C2122   1.404       .  A
C2121      H2132   1.083       .  S
C2122      C2123   1.402       .  A
C2123      C2124   1.408       .  A
C2123      H2133   1.084       .  S
C2124      C2125   1.405       .  A
C2125      H2134   1.084       .  S
C2126      C2127   1.408       .  A
C2126      H2135   1.084       .  S
C2127      C2128   1.405       .  A
C2128      H2136   1.084       .  S
C2137      C2138   1.400       .  A
C2137      C2142   1.404       .  A
C2137      H2153   1.083       .  S
C2138      C2139   1.404       .  A
C2138      H2154   1.083       .  S
C2139      C2149   1.406       .  A
C2139      C2140   1.413       .  A
C2140      C2146   1.410       .  A
C2140      C2141   1.409       .  A
C2141      C2143   1.412       .  A
C2141      C2142   1.411       .  A
C2142      C2150   1.402       .  A
C2143      C2152   1.398       .  A
C2143      C2144   1.402       .  A
C2144      C2145   1.395       .  A
C2144      H2155   1.084       .  S
C2145      C2146   1.402       .  A
C2145      H2156   1.084       .  S
C2146      C2147   1.395       .  A
C2147      C2148   1.403       .  A
C2147      H2157   1.084       .  S
C2148      C2149   1.407       .  A
C2149      H2158   1.084       .  S
C2150      C2151   1.407       .  A
C2150      H2159   1.084       .  S
C2151      C2152   1.403       .  A
C2152      H2160   1.084       .  S
C2161      C2162   1.398       .  A
C2161      C2166   1.403       .  A
C2161      H2177   1.084       .  S
C2162      C2163   1.404       .  A
C2162      H2178   1.084       .  S
C2163      C2173   1.400       .  A
C2163      C2164   1.409       .  A
C2164      C2170   1.414       .  A
C2164      C2165   1.414       .  A
C2165      C2167   1.410       .  A
C2165      C2166   1.413       .  A
C2166      C2174   1.405       .  A
C2167      C2176   1.405       .  A
C2167      C2168   1.405       .  A
C2168      C2169   1.401       .  A
C2168      H2179   1.083       .  S
C2169      C2170   1.404       .  A
C2169      H2180   1.083       .  S
C2170      C2171   1.409       .  A
C2171      C2172   1.407       .  A
C2171      H2181   1.084       .  S
C2172      C2173   1.408       .  A
C2173      H2182   1.084       .  S
C2174      C2175   1.406       .  A
C2174      H2183   1.084       .  S
C2175      C2176   1.409       .  A
C2176      H2184   1.084       .  S
C2185      C2186   1.403       .  A
C2185      C2190   1.405       .  A
C2185      H2201   1.083       .  S
C2186      C2187   1.406       .  A
C2186      H2202   1.083       .  S
C2187      C2197   1.408       .  A
C2187      C2188   1.410       .  A
C2188      C2194   1.413       .  A
C2188      C2189   1.415       .  A
C2189      C2191   1.409       .  A
C2189      C2190   1.414       .  A
C2190      C2198   1.413       .  A
C2191      C2200   1.400       .  A
C2191      C2192   1.404       .  A
C2192      C2193   1.398       .  A
C2192      H2203   1.084       .  S
C2193      C2194   1.402       .  A
C2193      H2204   1.084       .  S
C2194      C2195   1.404       .  A
C2195      C2196   1.404       .  A
C2195      H2205   1.084       .  S
C2196      C2197   1.412       .  A
C2197      H2206   1.084       .  S
C2198      C2199   1.408       .  A
C2198      H2207   1.084       .  S
C2199      C2200   1.409       .  A
C2200      H2208   1.084       .  S
C2209      C2210   1.397       .  A
C2209      C2214   1.402       .  A
C2209      H2225   1.084       .  S
C2210      C2211   1.403       .  A
C2210      H2226   1.084       .  S
C2211      C2221   1.396       .  A
C2211      C2212   1.408       .  A
C2212      C2218   1.415       .  A
C2212      C2213   1.411       .  A
C2213      C2215   1.409       .  A
C2213      C2214   1.414       .  A
C2214      C2222   1.404       .  A
C2215      C2224   1.402       .  A
C2215      C2216   1.405       .  A
C2216      C2217   1.400       .  A
C2216      H2227   1.083       .  S
C2217      C2218   1.403       .  A
C2217      H2228   1.083       .  S
C2218      C2219   1.408       .  A
C2219      C2220   1.405       .  A
C2219      H2229   1.084       .  S
C2220      C2221   1.406       .  A
C2221      H2230   1.084       .  S
C2222      C2223   1.403       .  A
C2222      H2231   1.084       .  S
C2223      C2224   1.409       .  A
C2224      H2232   1.084       .  S
C2233      C2234   1.397   1_556  A
C2233      C2238   1.403       .  A
C2233      H2249   1.084       .  S
C2234      C2235   1.403       .  A
C2234      H2250   1.084       .  S
C2235      C2245   1.400       .  A
C2235      C2236   1.411       .  A
C2236      C2242   1.412       .  A
C2236      C2237   1.410   1_554  A
C2237      C2239   1.412       .  A
C2237      C2238   1.411       .  A
C2238      C2246   1.399       .  A
C2239      C2248   1.404       .  A
C2239      C2240   1.403       .  A
C2240      C2241   1.399   1_556  A
C2240      H2251   1.084       .  S
C2241      C2242   1.404       .  A
C2241      H2252   1.084       .  S
C2242      C2243   1.403       .  A
C2243      C2244   1.406       .  A
C2243      H2253   1.084       .  S
C2244      C2245   1.405       .  A
C2245      H2254   1.084       .  S
C2246      C2247   1.406       .  A
C2246      H2255   1.084       .  S
C2247      C2248   1.405       .  A
C2248      H2256   1.084       .  S
C2257      C2258   1.400       .  A
C2257      C2262   1.404       .  A
C2257      H2273   1.083       .  S
C2258      C2259   1.404       .  A
C2258      H2274   1.084       .  S
C2259      C2269   1.402       .  A
C2259      C2260   1.410       .  A
C2260      C2266   1.413       .  A
C2260      C2261   1.413       .  A
C2261      C2263   1.410       .  A
C2261      C2262   1.413       .  A
C2262      C2270   1.406       .  A
C2263      C2272   1.403       .  A
C2263      C2264   1.404       .  A
C2264      C2265   1.399       .  A
C2264      H2275   1.084       .  S
C2265      C2266   1.403       .  A
C2265      H2276   1.083       .  S
C2266      C2267   1.406       .  A
C2267      C2268   1.405       .  A
C2267      H2277   1.084       .  S
C2268      C2269   1.409       .  A
C2269      H2278   1.084       .  S
C2270      C2271   1.406       .  A
C2270      H2279   1.084       .  S
C2271      C2272   1.407       .  A
C2272      H2280   1.084       .  S
C2281      C2282   1.401       .  A
C2281      C2286   1.405       .  A
C2281      H2297   1.084       .  S
C2282      C2283   1.404       .  A
C2282      H2298   1.083       .  S
C2283      C2293   1.409       .  A
C2283      C2284   1.414       .  A
C2284      C2290   1.409       .  A
C2284      C2285   1.414       .  A
C2285      C2287   1.414       .  A
C2285      C2286   1.409       .  A
C2286      C2294   1.403       .  A
C2287      C2296   1.408       .  A
C2287      C2288   1.403       .  A
C2288      C2289   1.400       .  A
C2288      H2299   1.083       .  S
C2289      C2290   1.404       .  A
C2289      H2300   1.084       .  S
C2290      C2291   1.402       .  A
C2291      C2292   1.409       .  A
C2291      H2301   1.084       .  S
C2292      C2293   1.407       .  A
C2293      H2302   1.084       .  S
C2294      C2295   1.409       .  A
C2294      H2303   1.084       .  S
C2295      C2296   1.405       .  A
C2296      H2304   1.084       .  S
C2305      C2306   1.398       .  A
C2305      C2310   1.402       .  A
C2305      H2321   1.084       .  S
C2306      C2307   1.404       .  A
C2306      H2322   1.084       .  S
C2307      C2317   1.398       .  A
C2307      C2308   1.408       .  A
C2308      C2314   1.414       .  A
C2308      C2309   1.411       .  A
C2309      C2311   1.409       .  A
C2309      C2310   1.414       .  A
C2310      C2318   1.404       .  A
C2311      C2320   1.400       .  A
C2311      C2312   1.404       .  A
C2312      C2313   1.399       .  A
C2312      H2323   1.083       .  S
C2313      C2314   1.403       .  A
C2313      H2324   1.083       .  S
C2314      C2315   1.407       .  A
C2315      C2316   1.405       .  A
C2315      H2325   1.084       .  S
C2316      C2317   1.408       .  A
C2317      H2326   1.084       .  S
C2318      C2319   1.404       .  A
C2318      H2327   1.084       .  S
C2319      C2320   1.407       .  A
C2320      H2328   1.084       .  S
C2329      C2330   1.403       .  A
C2329      C2334   1.405       .  A
C2329      H2345   1.083       .  S
C2330      C2331   1.406       .  A
C2330      H2346   1.083       .  S
C2331      C2341   1.407       .  A
C2331      C2332   1.410       .  A
C2332      C2338   1.413       .  A
C2332      C2333   1.414       .  A
C2333      C2335   1.409       .  A
C2333      C2334   1.414       .  A
C2334      C2342   1.410       .  A
C2335      C2344   1.398       .  A
C2335      C2336   1.403       .  A
C2336      C2337   1.397       .  A
C2336      H2347   1.084       .  S
C2337      C2338   1.402       .  A
C2337      H2348   1.084       .  S
C2338      C2339   1.403       .  A
C2339      C2340   1.404       .  A
C2339      H2349   1.084       .  S
C2340      C2341   1.411       .  A
C2341      H2350   1.084       .  S
C2342      C2343   1.408       .  A
C2342      H2351   1.084       .  S
C2343      C2344   1.407       .  A
C2344      H2352   1.084       .  S
C2353      C2354   1.396       .  A
C2353      C2358   1.403       .  A
C2353      H2369   1.084       .  S
C2354      C2355   1.402       .  A
C2354      H2370   1.084       .  S
C2355      C2365   1.399       .  A
C2355      C2356   1.412       .  A
C2356      C2362   1.411       .  A
C2356      C2357   1.408       .  A
C2357      C2359   1.413       .  A
C2357      C2358   1.410       .  A
C2358      C2366   1.397       .  A
C2359      C2368   1.402       .  A
C2359      C2360   1.403       .  A
C2360      C2361   1.398       .  A
C2360      H2371   1.083       .  S
C2361      C2362   1.403       .  A
C2361      H2372   1.084       .  S
C2362      C2363   1.400       .  A
C2363      C2364   1.405       .  A
C2363      H2373   1.084       .  S
C2364      C2365   1.403       .  A
C2365      H2374   1.084       .  S
C2366      C2367   1.405       .  A
C2366      H2375   1.085       .  S
C2367      C2368   1.405       .  A
C2368      H2376   1.084       .  S
C2377      C2378   1.397       .  A
C2377      C2382   1.403       .  A
C2377      H2393   1.084       .  S
C2378      C2379   1.403       .  A
C2378      H2394   1.084       .  S
C2379      C2389   1.401       .  A
C2379      C2380   1.408       .  A
C2380      C2386   1.410       .  A
C2380      C2381   1.419       .  A
C2381      C2383   1.413       .  A
C2381      C2382   1.410       .  A
C2382      C2390   1.402       .  A
C2383      C2392   1.417       .  A
C2383      C2384   1.407       .  A
C2384      C2385   1.407       .  A
C2384      H2395   1.083       .  S
C2385      C2386   1.407       .  A
C2385      H2396   1.083       .  S
C2386      C2387   1.415       .  A
C2387      C2388   1.421       .  A
C2387      H2397   1.082       .  S
C2388      C2389   1.416       .  A
C2389      H2398   1.083       .  S
C2390      C2391   1.408       .  A
C2390      H2399   1.084       .  S
C2391      C2392   1.412       .  A
C2392      H2400   1.084       .  S
C2401      C2402   1.402       .  A
C2401      C2406   1.405       .  A
C2401      H2417   1.084       .  S
C2402      C2403   1.404       .  A
C2402      H2418   1.083       .  S
C2403      C2413   1.407       .  A
C2403      C2404   1.411       .  A
C2404      C2410   1.412       .  A
C2404      C2405   1.417       .  A
C2405      C2407   1.408       .  A
C2405      C2406   1.408       .  A
C2406      C2414   1.407       .  A
C2407      C2416   1.407       .  A
C2407      C2408   1.405       .  A
C2408      C2409   1.400       .  A
C2408      H2419   1.084       .  S
C2409      C2410   1.403       .  A
C2409      H2420   1.083       .  S
C2410      C2411   1.407       .  A
C2411      C2412   1.408       .  A
C2411      H2421   1.084       .  S
C2412      C2413   1.409       .  A
C2413      H2422   1.084       .  S
C2414      C2415   1.422       .  A
C2414      H2423   1.084       .  S
C2415      C2416   1.421       .  A
C2416      H2424   1.081   1_455  S
C2425      C2426   1.392       .  A
C2425      C2430   1.400       .  A
C2425      H2441   1.084       .  S
C2426      C2427   1.402       .  A
C2426      H2442   1.084       .  S
C2427      C2437   1.395       .  A
C2427      C2428   1.408       .  A
C2428      C2434   1.409       .  A
C2428      C2429   1.415       .  A
C2429      C2431   1.414       .  A
C2429      C2430   1.409       .  A
C2430      C2438   1.393       .  A
C2431      C2440   1.417       .  A
C2431      C2432   1.407       .  A
C2432      C2433   1.407       .  A
C2432      H2443   1.083       .  S
C2433      C2434   1.408       .  A
C2433      H2444   1.083       .  S
C2434      C2435   1.413       .  A
C2435      C2436   1.421       .  A
C2435      H2445   1.084       .  S
C2436      C2437   1.416       .  A
C2437      H2446   1.079       .  S
C2438      C2439   1.405       .  A
C2438      H2447   1.085       .  S
C2439      C2440   1.412       .  A
C2440      H2448   1.084       .  S
C2449      C2450   1.402       .  A
C2449      C2454   1.405       .  A
C2449      H2465   1.083       .  S
C2450      C2451   1.404       .  A
C2450      H2466   1.083       .  S
C2451      C2461   1.408       .  A
C2451      C2452   1.412       .  A
C2452      C2458   1.411       .  A
C2452      C2453   1.414       .  A
C2453      C2455   1.407       .  A
C2453      C2454   1.410       .  A
C2454      C2462   1.409       .  A
C2455      C2464   1.399   1_455  A
C2455      C2456   1.404       .  A
C2456      C2457   1.398       .  A
C2456      H2467   1.084       .  S
C2457      C2458   1.403       .  A
C2457      H2468   1.084       .  S
C2458      C2459   1.402       .  A
C2459      C2460   1.407       .  A
C2459      H2469   1.084       .  S
C2460      C2461   1.407       .  A
C2461      H2470   1.084       .  S
C2462      C2463   1.416   1_455  A
C2462      H2471   1.080       .  S
C2463      C2464   1.417       .  A
C2464      H2472   1.084       .  S
C2473      C2474   1.399       .  A
C2473      C2478   1.405       .  A
C2473      H2489   1.084       .  S
C2474      C2475   1.403       .  A
C2474      H2490   1.083       .  S
C2475      C2485   1.402       .  A
C2475      C2476   1.408       .  A
C2476      C2482   1.409   1_655  A
C2476      C2477   1.415       .  A
C2477      C2479   1.405       .  A
C2477      C2478   1.405       .  A
C2478      C2486   1.403       .  A
C2479      C2488   1.407       .  A
C2479      C2480   1.406   1_655  A
C2480      C2481   1.401       .  A
C2480      H2491   1.083       .  S
C2481      C2482   1.405       .  A
C2481      H2492   1.084       .  S
C2482      C2483   1.407       .  A
C2483      C2484   1.418   1_455  A
C2483      H2493   1.080       .  S
C2484      C2485   1.417       .  A
C2485      H2494   1.084       .  S
C2486      C2487   1.420       .  A
C2486      H2495   1.071       .  S
C2487      C2488   1.426       .  A
C2488      H2496   1.078   1_655  S
C2497      C2498   1.407       .  A
C2497      C2502   1.406       .  A
C2497      H2513   1.083       .  S
C2498      C2499   1.407       .  A
C2498      H2514   1.083       .  S
C2499      C2509   1.414       .  A
C2499      C2500   1.409       .  A
C2500      C2506   1.408       .  A
C2500      C2501   1.418       .  A
C2501      C2503   1.410       .  A
C2501      C2502   1.413       .  A
C2502      C2510   1.417       .  A
C2503      C2512   1.400       .  A
C2503      C2504   1.402       .  A
C2504      C2505   1.396       .  A
C2504      H2515   1.084       .  S
C2505      C2506   1.403       .  A
C2505      H2516   1.084       .  S
C2506      C2507   1.401       .  A
C2507      C2508   1.418       .  A
C2507      H2517   1.080       .  S
C2508      C2509   1.420       .  A
C2509      H2518   1.084       .  S
C2510      C2511   1.411       .  A
C2510      H2519   1.084       .  S
C2511      C2512   1.408       .  A
C2512      H2520   1.085       .  S
C2521      C2522   1.397       .  A
C2521      C2526   1.403       .  A
C2521      H2537   1.084       .  S
C2522      C2523   1.403       .  A
C2522      H2538   1.084       .  S
C2523      C2533   1.399       .  A
C2523      C2524   1.408       .  A
C2524      C2530   1.410       .  A
C2524      C2525   1.415       .  A
C2525      C2527   1.412       .  A
C2525      C2526   1.411       .  A
C2526      C2534   1.402       .  A
C2527      C2536   1.410       .  A
C2527      C2528   1.405       .  A
C2528      C2529   1.403       .  A
C2528      H2539   1.083       .  S
C2529      C2530   1.406       .  A
C2529      H2540   1.083       .  S
C2530      C2531   1.411       .  A
C2531      C2532   1.418       .  A
C2531      H2541   1.080       .  S
C2532      C2533   1.416       .  A
C2533      H2542   1.083   1_455  S
C2534      C2535   1.407       .  A
C2534      H2543   1.084       .  S
C2535      C2536   1.408       .  A
C2536      H2544   1.084       .  S
C2545      C2546   1.402   1_554  A
C2545      C2550   1.405       .  A
C2545      H2561   1.083       .  S
C2546      C2547   1.405       .  A
C2546      H2562   1.083       .  S
C2547      C2557   1.411       .  A
C2547      C2548   1.410       .  A
C2548      C2554   1.408   1_655  A
C2548      C2549   1.419   1_556  A
C2549      C2551   1.409   1_655  A
C2549      C2550   1.410       .  A
C2550      C2558   1.410       .  A
C2551      C2560   1.405       .  A
C2551      C2552   1.404       .  A
C2552      C2553   1.400   1_554  A
C2552      H2563   1.083       .  S
C2553      C2554   1.404       .  A
C2553      H2564   1.084       .  S
C2554      C2555   1.405       .  A
C2555      C2556   1.417   1_455  A
C2555      H2565   1.084       .  S
C2556      C2557   1.419       .  A
C2557      H2566   1.080       .  S
C2558      C2559   1.418       .  A
C2558      H2567   1.080       .  S
C2559      C2560   1.417   1_655  A
C2560      H2568   1.084       .  S
C2569      C2570   1.405       .  A
C2569      C2574   1.406       .  A
C2569      H2585   1.083       .  S
C2570      C2571   1.406       .  A
C2570      H2586   1.083       .  S
C2571      C2581   1.412       .  A
C2571      C2572   1.410       .  A
C2572      C2578   1.409       .  A
C2572      C2573   1.417       .  A
C2573      C2575   1.410       .  A
C2573      C2574   1.413       .  A
C2574      C2582   1.414       .  A
C2575      C2584   1.401       .  A
C2575      C2576   1.403       .  A
C2576      C2577   1.397       .  A
C2576      H2587   1.084       .  S
C2577      C2578   1.403       .  A
C2577      H2588   1.084       .  S
C2578      C2579   1.401       .  A
C2579      C2580   1.416       .  A
C2579      H2589   1.083       .  S
C2580      C2581   1.420       .  A
C2581      H2590   1.083       .  S
C2582      C2583   1.411       .  A
C2582      H2591   1.084       .  S
C2583      C2584   1.408       .  A
C2584      H2592   1.084       .  S
C2593      C2594   1.401       .  A
C2593      C2598   1.404       .  A
C2593      H2609   1.083       .  S
C2594      C2595   1.405       .  A
C2594      H2610   1.083       .  S
C2595      C2605   1.408       .  A
C2595      C2596   1.408       .  A
C2596      C2602   1.407       .  A
C2596      C2597   1.417       .  A
C2597      C2599   1.412       .  A
C2597      C2598   1.411       .  A
C2598      C2606   1.407       .  A
C2599      C2608   1.408       .  A
C2599      C2600   1.403       .  A
C2600      C2601   1.400       .  A
C2600      H2611   1.084       .  S
C2601      C2602   1.406       .  A
C2601      H2612   1.084   1_455  S
C2602      C2603   1.406   1_455  A
C2603      C2604   1.424   1_655  A
C2603      H2613   1.080       .  S
C2604      C2605   1.421       .  A
C2605      H2614   1.084       .  S
C2606      C2607   1.409       .  A
C2606      H2615   1.084       .  S
C2607      C2608   1.407       .  A
C2608      H2616   1.084       .  S
C2617      C2618   1.401   1_554  A
C2617      C2622   1.405       .  A
C2617      H2633   1.084       .  S
C2618      C2619   1.405       .  A
C2618      H2634   1.083       .  S
C2619      C2629   1.404       .  A
C2619      C2620   1.405       .  A
C2620      C2626   1.407       .  A
C2620      C2621   1.417   1_556  A
C2621      C2623   1.406       .  A
C2621      C2622   1.405       .  A
C2622      C2630   1.405       .  A
C2623      C2632   1.411       .  A
C2623      C2624   1.407   1_655  A
C2624      C2625   1.404   1_554  A
C2624      H2635   1.083       .  S
C2625      C2626   1.406   1_455  A
C2625      H2636   1.083       .  S
C2626      C2627   1.412       .  A
C2627      C2628   1.423       .  A
C2627      H2637   1.075   1_655  S
C2628      C2629   1.421       .  A
C2629      H2638   1.080       .  S
C2630      C2631   1.420       .  A
C2630      H2639   1.080       .  S
C2631      C2632   1.425       .  A
C2632      H2640   1.076   1_655  S
C2641      C2642   1.402       .  A
C2641      C2646   1.405       .  A
C2641      H2657   1.083       .  S
C2642      C2643   1.406       .  A
C2642      H2658   1.083       .  S
C2643      C2653   1.410   1_455  A
C2643      C2644   1.407   1_455  A
C2644      C2650   1.404       .  A
C2644      C2645   1.416       .  A
C2645      C2647   1.409       .  A
C2645      C2646   1.408   1_655  A
C2646      C2654   1.408       .  A
C2647      C2656   1.403       .  A
C2647      C2648   1.403       .  A
C2648      C2649   1.398       .  A
C2648      H2659   1.084       .  S
C2649      C2650   1.405       .  A
C2649      H2660   1.084       .  S
C2650      C2651   1.402       .  A
C2651      C2652   1.420       .  A
C2651      H2661   1.071       .  S
C2652      C2653   1.426       .  A
C2653      H2662   1.077   1_655  S
C2654      C2655   1.420   1_455  A
C2654      H2663   1.080       .  S
C2655      C2656   1.416       .  A
C2656      H2664   1.084       .  S
C2665      C2666   1.400       .  A
C2665      C2670   1.404       .  A
C2665      H2681   1.083       .  S
C2666      C2667   1.404       .  A
C2666      H2682   1.084       .  S
C2667      C2677   1.402       .  A
C2667      C2668   1.407       .  A
C2668      C2674   1.409       .  A
C2668      C2669   1.413       .  A
C2669      C2671   1.411       .  A
C2669      C2670   1.411       .  A
C2670      C2678   1.405       .  A
C2671      C2680   1.404       .  A
C2671      C2672   1.403       .  A
C2672      C2673   1.399       .  A
C2672      H2683   1.084       .  S
C2673      C2674   1.404       .  A
C2673      H2684   1.084       .  S
C2674      C2675   1.404       .  A
C2675      C2676   1.415       .  A
C2675      H2685   1.078       .  S
C2676      C2677   1.420       .  A
C2677      H2686   1.083       .  S
C2678      C2679   1.408       .  A
C2678      H2687   1.084       .  S
C2679      C2680   1.406       .  A
C2680      H2688   1.084       .  S
C2689      C2690   1.410       .  A
C2689      C2694   1.408       .  A
C2689      H2705   1.083       .  S
C2690      C2691   1.409       .  A
C2690      H2706   1.083       .  S
C2691      C2701   1.419       .  A
C2691      C2692   1.409       .  A
C2692      C2698   1.407       .  A
C2692      C2693   1.418       .  A
C2693      C2695   1.409       .  A
C2693      C2694   1.413       .  A
C2694      C2702   1.422       .  A
C2695      C2704   1.394       .  A
C2695      C2696   1.400       .  A
C2696      C2697   1.392       .  A
C2696      H2707   1.084       .  S
C2697      C2698   1.402       .  A
C2697      H2708   1.084       .  S
C2698      C2699   1.396       .  A
C2699      C2700   1.418       .  A
C2699      H2709   1.077       .  S
C2700      C2701   1.423       .  A
C2701      H2710   1.084       .  S
C2702      C2703   1.414       .  A
C2702      H2711   1.083       .  S
C2703      C2704   1.406       .  A
C2704      H2712   1.085       .  S
C2713      C2714   1.399       .  A
C2713      C2718   1.403       .  A
C2713      H2729   1.084       .  S
C2714      C2715   1.405       .  A
C2714      H2730   1.084       .  S
C2715      C2725   1.402       .  A
C2715      C2716   1.406       .  A
C2716      C2722   1.408       .  A
C2716      C2717   1.414       .  A
C2717      C2719   1.410       .  A
C2717      C2718   1.413       .  A
C2718      C2726   1.406       .  A
C2719      C2728   1.403       .  A
C2719      C2720   1.404       .  A
C2720      C2721   1.400       .  A
C2720      H2731   1.083       .  S
C2721      C2722   1.404       .  A
C2721      H2732   1.084       .  S
C2722      C2723   1.404       .  A
C2723      C2724   1.419       .  A
C2723      H2733   1.085       .  S
C2724      C2725   1.422       .  A
C2725      H2734   1.080       .  S
C2726      C2727   1.406       .  A
C2726      H2735   1.084       .  S
C2727      C2728   1.409       .  A
C2728      H2736   1.084       .  S
C2737      C2738   1.406       .  A
C2737      C2742   1.406       .  A
C2737      H2753   1.083       .  S
C2738      C2739   1.407       .  A
C2738      H2754   1.083       .  S
C2739      C2749   1.412       .  A
C2739      C2740   1.410       .  A
C2740      C2746   1.407       .  A
C2740      C2741   1.414       .  A
C2741      C2743   1.410       .  A
C2741      C2742   1.412       .  A
C2742      C2750   1.414       .  A
C2743      C2752   1.396       .  A
C2743      C2744   1.401       .  A
C2744      C2745   1.394       .  A
C2744      H2755   1.084       .  S
C2745      C2746   1.402       .  A
C2745      H2756   1.084       .  S
C2746      C2747   1.395       .  A
C2747      C2748   1.416       .  A
C2747      H2757   1.082       .  S
C2748      C2749   1.420       .  A
C2749      H2758   1.081       .  S
C2750      C2751   1.411       .  A
C2750      H2759   1.084       .  S
C2751      C2752   1.405       .  A
C2752      H2760   1.084       .  S
C2761      C2762   1.397       .  A
C2761      C2766   1.402       .  A
C2761      H2777   1.084       .  S
C2762      C2763   1.404       .  A
C2762      H2778   1.084       .  S
C2763      C2773   1.400       .  A
C2763      C2764   1.404   1_545  A
C2764      C2770   1.406       .  A
C2764      C2765   1.413       .  A
C2765      C2767   1.408       .  A
C2765      C2766   1.408   1_565  A
C2766      C2774   1.399       .  A
C2767      C2776   1.406       .  A
C2767      C2768   1.405       .  A
C2768      C2769   1.401       .  A
C2768      H2779   1.083       .  S
C2769      C2770   1.406       .  A
C2769      H2780   1.084       .  S
C2770      C2771   1.407       .  A
C2771      C2772   1.426       .  A
C2771      H2781   1.078       .  S
C2772      C2773   1.417   1_565  A
C2773      H2782   1.071       .  S
C2774      C2775   1.416   1_545  A
C2774      H2783   1.084       .  S
C2775      C2776   1.420       .  A
C2776      H2784   1.079       .  S
C2785      C2786   1.397       .  A
C2785      C2790   1.403       .  A
C2785      H2801   1.084       .  S
C2786      C2787   1.403       .  A
C2786      H2802   1.084       .  S
C2787      C2797   1.398       .  A
C2787      C2788   1.407       .  A
C2788      C2794   1.411       .  A
C2788      C2789   1.416       .  A
C2789      C2791   1.412       .  A
C2789      C2790   1.411       .  A
C2790      C2798   1.402       .  A
C2791      C2800   1.412       .  A
C2791      C2792   1.406       .  A
C2792      C2793   1.404       .  A
C2792      H2803   1.083       .  S
C2793      C2794   1.406       .  A
C2793      H2804   1.083       .  S
C2794      C2795   1.414       .  A
C2795      C2796   1.417       .  A
C2795      H2805   1.080       .  S
C2796      C2797   1.418       .  A
C2797      H2806   1.083       .  S
C2798      C2799   1.408       .  A
C2798      H2807   1.084       .  S
C2799      C2800   1.410       .  A
C2800      H2808   1.084       .  S
C2809      C2810   1.393       .  A
C2809      C2814   1.401       .  A
C2809      H2825   1.084       .  S
C2810      C2811   1.402       .  A
C2810      H2826   1.084       .  S
C2811      C2821   1.397       .  A
C2811      C2812   1.408       .  A
C2812      C2818   1.409       .  A
C2812      C2813   1.415       .  A
C2813      C2815   1.413       .  A
C2813      C2814   1.409       .  A
C2814      C2822   1.395       .  A
C2815      C2824   1.416       .  A
C2815      C2816   1.406       .  A
C2816      C2817   1.407       .  A
C2816      H2827   1.083       .  S
C2817      C2818   1.407       .  A
C2817      H2828   1.083       .  S
C2818      C2819   1.413       .  A
C2819      C2820   1.420       .  A
C2819      H2829   1.084       .  S
C2820      C2821   1.418       .  A
C2821      H2830   1.080       .  S
C2822      C2823   1.406       .  A
C2822      H2831   1.085       .  S
C2823      C2824   1.411       .  A
C2824      H2832   1.083       .  S
C2833      C2834   1.401   1_455  A
C2833      C2838   1.405       .  A
C2833      H2849   1.084       .  S
C2834      C2835   1.404       .  A
C2834      H2850   1.084       .  S
C2835      C2845   1.407       .  A
C2835      C2836   1.409       .  A
C2836      C2842   1.408   1_565  A
C2836      C2837   1.419   1_655  A
C2837      C2839   1.411   1_565  A
C2837      C2838   1.406       .  A
C2838      C2846   1.404       .  A
C2839      C2848   1.413       .  A
C2839      C2840   1.405   1_455  A
C2840      C2841   1.402       .  A
C2840      H2851   1.084   1_655  S
C2841      C2842   1.406       .  A
C2841      H2852   1.083       .  S
C2842      C2843   1.410   1_545  A
C2843      C2844   1.420       .  A
C2843      H2853   1.079   1_565  S
C2844      C2845   1.418       .  A
C2845      H2854   1.084       .  S
C2846      C2847   1.421       .  A
C2846      H2855   1.084       .  S
C2847      C2848   1.417   1_565  A
C2848      H2856   1.081       .  S
C2857      C2858   1.400       .  A
C2857      C2862   1.404       .  A
C2857      H2873   1.084       .  S
C2858      C2859   1.404       .  A
C2858      H2874   1.084       .  S
C2859      C2869   1.405       .  A
C2859      C2860   1.408       .  A
C2860      C2866   1.407       .  A
C2860      C2861   1.415       .  A
C2861      C2863   1.412       .  A
C2861      C2862   1.411       .  A
C2862      C2870   1.405       .  A
C2863      C2872   1.406       .  A
C2863      C2864   1.403       .  A
C2864      C2865   1.400       .  A
C2864      H2875   1.084       .  S
C2865      C2866   1.405       .  A
C2865      H2876   1.084       .  S
C2866      C2867   1.405       .  A
C2867      C2868   1.423       .  A
C2867      H2877   1.080       .  S
C2868      C2869   1.421       .  A
C2869      H2878   1.084       .  S
C2870      C2871   1.409       .  A
C2870      H2879   1.084       .  S
C2871      C2872   1.406       .  A
C2872      H2880   1.084       .  S
C2881      C2882   1.405       .  A
C2881      C2886   1.406       .  A
C2881      H2897   1.083       .  S
C2882      C2883   1.406       .  A
C2882      H2898   1.084       .  S
C2883      C2893   1.412       .  A
C2883      C2884   1.410       .  A
C2884      C2890   1.408       .  A
C2884      C2885   1.418       .  A
C2885      C2887   1.410       .  A
C2885      C2886   1.412       .  A
C2886      C2894   1.414       .  A
C2887      C2896   1.403       .  A
C2887      C2888   1.403       .  A
C2888      C2889   1.398       .  A
C2888      H2899   1.084       .  S
C2889      C2890   1.404       .  A
C2889      H2900   1.084       .  S
C2890      C2891   1.402       .  A
C2891      C2892   1.417       .  A
C2891      H2901   1.083   1_545  S
C2892      C2893   1.419       .  A
C2893      H2902   1.083       .  S
C2894      C2895   1.411       .  A
C2894      H2903   1.084       .  S
C2895      C2896   1.409       .  A
C2896      H2904   1.084       .  S
C2905      C2906   1.402   1_455  A
C2905      C2910   1.406       .  A
C2905      H2921   1.083       .  S
C2906      C2907   1.406       .  A
C2906      H2922   1.084       .  S
C2907      C2917   1.408       .  A
C2907      C2908   1.406       .  A
C2908      C2914   1.405   1_565  A
C2908      C2909   1.415   1_655  A
C2909      C2911   1.405   1_565  A
C2909      C2910   1.405       .  A
C2910      C2918   1.408       .  A
C2911      C2920   1.405       .  A
C2911      C2912   1.404   1_455  A
C2912      C2913   1.400       .  A
C2912      H2923   1.084   1_655  S
C2913      C2914   1.404       .  A
C2913      H2924   1.083       .  S
C2914      C2915   1.404       .  A
C2915      C2916   1.421   1_545  A
C2915      H2925   1.080       .  S
C2916      C2917   1.423       .  A
C2917      H2926   1.073       .  S
C2918      C2919   1.425       .  A
C2918      H2927   1.072       .  S
C2919      C2920   1.421   1_565  A
C2920      H2928   1.081       .  S
C2929      C2930   1.400       .  A
C2929      C2934   1.404       .  A
C2929      H2945   1.083       .  S
C2930      C2931   1.405       .  A
C2930      H2946   1.084       .  S
C2931      C2941   1.406       .  A
C2931      C2932   1.406       .  A
C2932      C2938   1.405       .  A
C2932      C2933   1.415       .  A
C2933      C2935   1.409       .  A
C2933      C2934   1.409       .  A
C2934      C2942   1.405       .  A
C2935      C2944   1.402       .  A
C2935      C2936   1.403   1_565  A
C2936      C2937   1.399       .  A
C2936      H2947   1.083       .  S
C2937      C2938   1.405   1_545  A
C2937      H2948   1.084       .  S
C2938      C2939   1.403       .  A
C2939      C2940   1.420       .  A
C2939      H2949   1.073   1_565  S
C2940      C2941   1.424       .  A
C2941      H2950   1.076       .  S
C2942      C2943   1.418       .  A
C2942      H2951   1.081       .  S
C2943      C2944   1.416       .  A
C2944      H2952   1.084   1_565  S
C2953      C2954   1.407       .  A
C2953      C2958   1.407       .  A
C2953      H2969   1.083       .  S
C2954      C2955   1.407       .  A
C2954      H2970   1.083       .  S
C2955      C2965   1.417       .  A
C2955      C2956   1.412       .  A
C2956      C2962   1.410       .  A
C2956      C2957   1.417       .  A
C2957      C2959   1.406       .  A
C2957      C2958   1.410       .  A
C2958      C2966   1.417       .  A
C2959      C2968   1.396       .  A
C2959      C2960   1.403       .  A
C2960      C2961   1.394       .  A
C2960      H2971   1.084       .  S
C2961      C2962   1.401       .  A
C2961      H2972   1.084       .  S
C2962      C2963   1.397       .  A
C2963      C2964   1.406       .  A
C2963      H2973   1.085       .  S
C2964      C2965   1.412       .  A
C2965      H2974   1.084       .  S
C2966      C2967   1.419       .  A
C2966      H2975   1.084       .  S
C2967      C2968   1.420       .  A
C2968      H2976   1.080       .  S
C2977      C2978   1.405       .  A
C2977      C2982   1.406       .  A
C2977      H2993   1.083       .  S
C2978      C2979   1.406       .  A
C2978      H2994   1.083       .  S
C2979      C2989   1.413       .  A
C2979      C2980   1.412       .  A
C2980      C2986   1.411       .  A
C2980      C2981   1.419       .  A
C2981      C2983   1.407       .  A
C2981      C2982   1.411       .  A
C2982      C2990   1.415       .  A
C2983      C2992   1.402       .  A
C2983      C2984   1.404       .  A
C2984      C2985   1.399       .  A
C2984      H2995   1.084       .  S
C2985      C2986   1.404       .  A
C2985      H2996   1.083       .  S
C2986      C2987   1.406       .  A
C2987      C2988   1.410       .  A
C2987      H2997   1.084       .  S
C2988      C2989   1.410       .  A
C2989      H2998   1.084       .  S
C2990      C2991   1.418       .  A
C2990      H2999   1.080       .  S
C2991      C2992   1.419       .  A
C2992      H3000   1.083       .  S
C3001      C3002   1.406       .  A
C3001      C3006   1.406       .  A
C3001      H3017   1.083       .  S
C3002      C3003   1.407       .  A
C3002      H3018   1.083       .  S
C3003      C3013   1.412       .  A
C3003      C3004   1.409       .  A
C3004      C3010   1.407       .  A
C3004      C3005   1.412       .  A
C3005      C3007   1.409       .  A
C3005      C3006   1.413       .  A
C3006      C3014   1.415       .  A
C3007      C3016   1.391       .  A
C3007      C3008   1.400       .  A
C3008      C3009   1.391       .  A
C3008      H3019   1.084       .  S
C3009      C3010   1.402       .  A
C3009      H3020   1.084       .  S
C3010      C3011   1.392       .  A
C3011      C3012   1.416       .  A
C3011      H3021   1.080       .  S
C3012      C3013   1.418       .  A
C3013      H3022   1.084       .  S
C3014      C3015   1.410       .  A
C3014      H3023   1.084       .  S
C3015      C3016   1.404       .  A
C3016      H3024   1.085       .  S
C3025      C3026   1.403       .  A
C3025      C3030   1.405       .  A
C3025      H3041   1.083       .  S
C3026      C3027   1.406       .  A
C3026      H3042   1.083       .  S
C3027      C3037   1.410       .  A
C3027      C3028   1.410       .  A
C3028      C3034   1.408       .  A
C3028      C3029   1.414       .  A
C3029      C3031   1.410       .  A
C3029      C3030   1.412       .  A
C3030      C3038   1.411       .  A
C3031      C3040   1.399       .  A
C3031      C3032   1.403       .  A
C3032      C3033   1.396       .  A
C3032      H3043   1.084       .  S
C3033      C3034   1.402       .  A
C3033      H3044   1.084       .  S
C3034      C3035   1.398       .  A
C3035      C3036   1.415       .  A
C3035      H3045   1.084       .  S
C3036      C3037   1.418       .  A
C3037      H3046   1.080       .  S
C3038      C3039   1.409       .  A
C3038      H3047   1.084       .  S
C3039      C3040   1.407       .  A
C3040      H3048   1.084       .  S
C3049      C3050   1.397       .  A
C3049      C3054   1.403       .  A
C3049      H3065   1.084       .  S
C3050      C3051   1.403       .  A
C3050      H3066   1.084       .  S
C3051      C3061   1.398       .  A
C3051      C3052   1.408   1_556  A
C3052      C3058   1.410       .  A
C3052      C3053   1.412       .  A
C3053      C3055   1.409       .  A
C3053      C3054   1.408   1_554  A
C3054      C3062   1.399       .  A
C3055      C3064   1.405       .  A
C3055      C3056   1.405       .  A
C3056      C3057   1.400       .  A
C3056      H3067   1.084       .  S
C3057      C3058   1.404       .  A
C3057      H3068   1.083       .  S
C3058      C3059   1.406       .  A
C3059      C3060   1.417       .  A
C3059      H3069   1.080       .  S
C3060      C3061   1.416   1_554  A
C3061      H3070   1.084       .  S
C3062      C3063   1.416   1_556  A
C3062      H3071   1.084       .  S
C3063      C3064   1.417       .  A
C3064      H3072   1.081       .  S
C3073      C3074   1.394       .  A
C3073      C3078   1.401       .  A
C3073      H3089   1.084       .  S
C3074      C3075   1.403       .  A
C3074      H3090   1.084       .  S
C3075      C3085   1.396       .  A
C3075      C3076   1.406       .  A
C3076      C3082   1.410       .  A
C3076      C3077   1.416       .  A
C3077      C3079   1.412       .  A
C3077      C3078   1.410       .  A
C3078      C3086   1.398       .  A
C3079      C3088   1.415       .  A
C3079      C3080   1.406       .  A
C3080      C3081   1.407       .  A
C3080      H3091   1.083       .  S
C3081      C3082   1.407       .  A
C3081      H3092   1.083       .  S
C3082      C3083   1.416       .  A
C3083      C3084   1.419       .  A
C3083      H3093   1.084       .  S
C3084      C3085   1.420       .  A
C3085      H3094   1.079       .  S
C3086      C3087   1.406       .  A
C3086      H3095   1.084       .  S
C3087      C3088   1.411       .  A
C3088      H3096   1.084       .  S
C3097      C3098   1.405       .  A
C3097      C3102   1.405       .  A
C3097      H3113   1.083       .  S
C3098      C3099   1.406       .  A
C3098      H3114   1.083       .  S
C3099      C3109   1.415       .  A
C3099      C3100   1.411       .  A
C3100      C3106   1.407       .  A
C3100      C3101   1.417       .  A
C3101      C3103   1.411       .  A
C3101      C3102   1.412       .  A
C3102      C3110   1.412       .  A
C3103      C3112   1.402       .  A
C3103      C3104   1.403       .  A
C3104      C3105   1.398       .  A
C3104      H3115   1.084       .  S
C3105      C3106   1.404       .  A
C3105      H3116   1.084       .  S
C3106      C3107   1.401       .  A
C3107      C3108   1.418       .  A
C3107      H3117   1.083       .  S
C3108      C3109   1.418       .  A
C3109      H3118   1.081       .  S
C3110      C3111   1.409       .  A
C3110      H3119   1.084       .  S
C3111      C3112   1.407       .  A
C3112      H3120   1.084       .  S
C3121      C3122   1.404   1_545  A
C3121      C3126   1.406       .  A
C3121      H3137   1.083       .  S
C3122      C3123   1.406       .  A
C3122      H3138   1.083       .  S
C3123      C3133   1.413       .  A
C3123      C3124   1.410   1_556  A
C3124      C3130   1.409       .  A
C3124      C3125   1.422   1_565  A
C3125      C3127   1.408       .  A
C3125      C3126   1.410   1_554  A
C3126      C3134   1.414       .  A
C3127      C3136   1.407       .  A
C3127      C3128   1.404       .  A
C3128      C3129   1.401   1_545  A
C3128      H3139   1.084       .  S
C3129      C3130   1.404       .  A
C3129      H3140   1.083       .  S
C3130      C3131   1.407       .  A
C3131      C3132   1.418       .  A
C3131      H3141   1.084       .  S
C3132      C3133   1.420   1_554  A
C3133      H3142   1.080       .  S
C3134      C3135   1.421   1_556  A
C3134      H3143   1.080       .  S
C3135      C3136   1.418       .  A
C3136      H3144   1.084       .  S
C3145      C3146   1.404       .  A
C3145      C3150   1.405       .  A
C3145      H3161   1.083       .  S
C3146      C3147   1.406       .  A
C3146      H3162   1.084       .  S
C3147      C3157   1.409       .  A
C3147      C3148   1.408       .  A
C3148      C3154   1.410       .  A
C3148      C3149   1.417       .  A
C3149      C3151   1.409       .  A
C3149      C3150   1.414       .  A
C3150      C3158   1.415       .  A
C3151      C3160   1.401       .  A
C3151      C3152   1.403       .  A
C3152      C3153   1.398       .  A
C3152      H3163   1.084       .  S
C3153      C3154   1.404       .  A
C3153      H3164   1.084       .  S
C3154      C3155   1.403       .  A
C3155      C3156   1.417       .  A
C3155      H3165   1.080       .  S
C3156      C3157   1.418       .  A
C3157      H3166   1.084       .  S
C3158      C3159   1.409       .  A
C3158      H3167   1.084       .  S
C3159      C3160   1.409       .  A
C3160      H3168   1.085       .  S
C3169      C3170   1.398       .  A
C3169      C3174   1.403       .  A
C3169      H3185   1.084       .  S
C3170      C3171   1.403       .  A
C3170      H3186   1.084       .  S
C3171      C3181   1.401       .  A
C3171      C3172   1.408       .  A
C3172      C3178   1.410       .  A
C3172      C3173   1.415       .  A
C3173      C3175   1.412       .  A
C3173      C3174   1.411       .  A
C3174      C3182   1.402       .  A
C3175      C3184   1.410       .  A
C3175      C3176   1.405       .  A
C3176      C3177   1.403       .  A
C3176      H3187   1.083       .  S
C3177      C3178   1.406       .  A
C3177      H3188   1.083       .  S
C3178      C3179   1.409       .  A
C3179      C3180   1.418       .  A
C3179      H3189   1.080       .  S
C3180      C3181   1.416       .  A
C3181      H3190   1.084       .  S
C3182      C3183   1.407       .  A
C3182      H3191   1.084       .  S
C3183      C3184   1.408       .  A
C3184      H3192   1.084       .  S
C3193      C3194   1.397   1_545  A
C3193      C3198   1.403       .  A
C3193      H3209   1.084       .  S
C3194      C3195   1.403       .  A
C3194      H3210   1.084       .  S
C3195      C3205   1.400       .  A
C3195      C3196   1.409       .  A
C3196      C3202   1.410   1_554  A
C3196      C3197   1.416   1_565  A
C3197      C3199   1.410   1_554  A
C3197      C3198   1.408       .  A
C3198      C3206   1.400       .  A
C3199      C3208   1.409       .  A
C3199      C3200   1.405       .  A
C3200      C3201   1.402   1_545  A
C3200      H3211   1.083       .  S
C3201      C3202   1.405       .  A
C3201      H3212   1.083       .  S
C3202      C3203   1.409       .  A
C3203      C3204   1.419   1_556  A
C3203      H3213   1.080       .  S
C3204      C3205   1.415       .  A
C3205      H3214   1.084       .  S
C3206      C3207   1.415       .  A
C3206      H3215   1.085       .  S
C3207      C3208   1.419   1_554  A
C3208      H3216   1.080       .  S
C3217      C3218   1.397       .  A
C3217      C3222   1.403       .  A
C3217      H3233   1.084       .  S
C3218      C3219   1.403       .  A
C3218      H3234   1.084       .  S
C3219      C3229   1.401       .  A
C3219      C3220   1.408   1_556  A
C3220      C3226   1.409       .  A
C3220      C3221   1.414       .  A
C3221      C3223   1.410       .  A
C3221      C3222   1.407   1_554  A
C3222      C3230   1.398       .  A
C3223      C3232   1.408       .  A
C3223      C3224   1.405       .  A
C3224      C3225   1.402       .  A
C3224      H3235   1.084       .  S
C3225      C3226   1.406       .  A
C3225      H3236   1.083       .  S
C3226      C3227   1.408       .  A
C3227      C3228   1.420       .  A
C3227      H3237   1.080       .  S
C3228      C3229   1.416   1_554  A
C3229      H3238   1.084       .  S
C3230      C3231   1.416   1_556  A
C3230      H3239   1.083       .  S
C3231      C3232   1.418       .  A
C3232      H3240   1.081       .  S
C3241      C3242   1.396       .  A
C3241      C3246   1.402       .  A
C3241      H3257   1.084       .  S
C3242      C3243   1.403       .  A
C3242      H3258   1.084       .  S
C3243      C3253   1.399       .  A
C3243      C3244   1.408       .  A
C3244      C3250   1.409       .  A
C3244      C3245   1.416       .  A
C3245      C3247   1.413       .  A
C3245      C3246   1.410       .  A
C3246      C3254   1.399       .  A
C3247      C3256   1.415       .  A
C3247      C3248   1.406       .  A
C3248      C3249   1.405       .  A
C3248      H3259   1.083       .  S
C3249      C3250   1.406       .  A
C3249      H3260   1.083       .  S
C3250      C3251   1.412       .  A
C3251      C3252   1.418       .  A
C3251      H3261   1.084       .  S
C3252      C3253   1.418       .  A
C3253      H3262   1.081       .  S
C3254      C3255   1.408       .  A
C3254      H3263   1.084       .  S
C3255      C3256   1.410       .  A
C3256      H3264   1.084       .  S
C3265      C3266   1.396       .  A
C3265      C3270   1.402       .  A
C3265      H3281   1.084       .  S
C3266      C3267   1.403       .  A
C3266      H3282   1.084       .  S
C3267      C3277   1.399       .  A
C3267      C3268   1.408       .  A
C3268      C3274   1.410       .  A
C3268      C3269   1.417       .  A
C3269      C3271   1.412       .  A
C3269      C3270   1.410       .  A
C3270      C3278   1.400       .  A
C3271      C3280   1.415       .  A
C3271      C3272   1.406       .  A
C3272      C3273   1.406       .  A
C3272      H3283   1.083       .  S
C3273      C3274   1.407       .  A
C3273      H3284   1.083       .  S
C3274      C3275   1.414       .  A
C3275      C3276   1.420       .  A
C3275      H3285   1.080       .  S
C3276      C3277   1.416       .  A
C3277      H3286   1.082       .  S
C3278      C3279   1.407       .  A
C3278      H3287   1.084       .  S
C3279      C3280   1.412       .  A
C3280      H3288   1.084       .  S
C3289      C3290   1.393       .  A
C3289      C3294   1.401       .  A
C3289      H3305   1.084       .  S
C3290      C3291   1.402       .  A
C3290      H3306   1.084       .  S
C3291      C3301   1.396       .  A
C3291      C3292   1.408       .  A
C3292      C3298   1.409       .  A
C3292      C3293   1.415       .  A
C3293      C3295   1.413       .  A
C3293      C3294   1.409       .  A
C3294      C3302   1.395       .  A
C3295      C3304   1.417       .  A
C3295      C3296   1.407       .  A
C3296      C3297   1.407       .  A
C3296      H3307   1.083       .  S
C3297      C3298   1.407       .  A
C3297      H3308   1.083       .  S
C3298      C3299   1.414       .  A
C3299      C3300   1.419       .  A
C3299      H3309   1.084       .  S
C3300      C3301   1.416       .  A
C3301      H3310   1.081       .  S
C3302      C3303   1.406       .  A
C3302      H3311   1.084       .  S
C3303      C3304   1.412       .  A
C3304      H3312   1.084       .  S
C3313      C3314   1.404       .  A
C3313      C3318   1.406       .  A
C3313      H3329   1.083       .  S
C3314      C3315   1.406       .  A
C3314      H3330   1.083       .  S
C3315      C3325   1.412       .  A
C3315      C3316   1.411       .  A
C3316      C3322   1.407       .  A
C3316      C3317   1.414       .  A
C3317      C3319   1.411       .  A
C3317      C3318   1.412       .  A
C3318      C3326   1.412       .  A
C3319      C3328   1.399       .  A
C3319      C3320   1.402       .  A
C3320      C3321   1.395       .  A
C3320      H3331   1.084       .  S
C3321      C3322   1.402       .  A
C3321      H3332   1.084       .  S
C3322      C3323   1.395       .  A
C3323      C3324   1.415       .  A
C3323      H3333   1.083       .  S
C3324      C3325   1.418       .  A
C3325      H3334   1.081       .  S
C3326      C3327   1.410       .  A
C3326      H3335   1.084       .  S
C3327      C3328   1.406       .  A
C3328      H3336   1.085       .  S
C3337      C3338   1.402       .  A
C3337      C3342   1.405       .  A
C3337      H3353   1.084       .  S
C3338      C3339   1.405       .  A
C3338      H3354   1.083       .  S
C3339      C3349   1.409       .  A
C3339      C3340   1.410       .  A
C3340      C3346   1.408       .  A
C3340      C3341   1.416       .  A
C3341      C3343   1.408       .  A
C3341      C3342   1.409       .  A
C3342      C3350   1.409       .  A
C3343      C3352   1.401       .  A
C3343      C3344   1.403       .  A
C3344      C3345   1.398       .  A
C3344      H3355   1.084       .  S
C3345      C3346   1.403       .  A
C3345      H3356   1.084       .  S
C3346      C3347   1.401       .  A
C3347      C3348   1.415       .  A
C3347      H3357   1.084       .  S
C3348      C3349   1.418       .  A
C3349      H3358   1.080       .  S
C3350      C3351   1.419       .  A
C3350      H3359   1.080       .  S
C3351      C3352   1.415       .  A
C3352      H3360   1.084       .  S
C3361      C3362   1.394       .  A
C3361      C3366   1.401       .  A
C3361      H3377   1.084       .  S
C3362      C3363   1.402       .  A
C3362      H3378   1.084       .  S
C3363      C3373   1.398       .  A
C3363      C3364   1.408       .  A
C3364      C3370   1.409       .  A
C3364      C3365   1.418       .  A
C3365      C3367   1.413       .  A
C3365      C3366   1.409       .  A
C3366      C3374   1.396       .  A
C3367      C3376   1.420       .  A
C3367      C3368   1.408       .  A
C3368      C3369   1.409       .  A
C3368      H3379   1.083       .  S
C3369      C3370   1.408       .  A
C3369      H3380   1.083       .  S
C3370      C3371   1.417       .  A
C3371      C3372   1.420       .  A
C3371      H3381   1.084       .  S
C3372      C3373   1.418       .  A
C3373      H3382   1.081       .  S
C3374      C3375   1.406       .  A
C3374      H3383   1.085       .  S
C3375      C3376   1.414       .  A
C3376      H3384   1.083       .  S
C3385      C3386   1.404       .  A
C3385      C3390   1.406       .  A
C3385      H3401   1.083       .  S
C3386      C3387   1.406       .  A
C3386      H3402   1.083       .  S
C3387      C3397   1.411       .  A
C3387      C3388   1.410       .  A
C3388      C3394   1.408       .  A
C3388      C3389   1.416       .  A
C3389      C3391   1.410       .  A
C3389      C3390   1.413       .  A
C3390      C3398   1.413       .  A
C3391      C3400   1.401       .  A
C3391      C3392   1.403       .  A
C3392      C3393   1.397       .  A
C3392      H3403   1.084       .  S
C3393      C3394   1.403       .  A
C3393      H3404   1.083       .  S
C3394      C3395   1.401       .  A
C3395      C3396   1.416       .  A
C3395      H3405   1.083       .  S
C3396      C3397   1.419       .  A
C3397      H3406   1.080       .  S
C3398      C3399   1.410       .  A
C3398      H3407   1.084       .  S
C3399      C3400   1.408       .  A
C3400      H3408   1.084       .  S
C3409      C3410   1.398   1_545  A
C3409      C3414   1.403       .  A
C3409      H3425   1.084       .  S
C3410      C3411   1.403       .  A
C3410      H3426   1.084       .  S
C3411      C3421   1.401       .  A
C3411      C3412   1.408       .  A
C3412      C3418   1.409       .  A
C3412      C3413   1.414   1_565  A
C3413      C3415   1.409       .  A
C3413      C3414   1.408       .  A
C3414      C3422   1.401       .  A
C3415      C3424   1.407       .  A
C3415      C3416   1.405       .  A
C3416      C3417   1.402   1_545  A
C3416      H3427   1.083       .  S
C3417      C3418   1.405       .  A
C3417      H3428   1.083       .  S
C3418      C3419   1.408       .  A
C3419      C3420   1.419       .  A
C3419      H3429   1.080       .  S
C3420      C3421   1.415       .  A
C3421      H3430   1.084       .  S
C3422      C3423   1.415       .  A
C3422      H3431   1.084       .  S
C3423      C3424   1.418       .  A
C3424      H3432   1.081       .  S
C3433      C3434   1.397       .  A
C3433      C3438   1.404       .  A
C3433      H3449   1.084       .  S
C3434      C3435   1.403       .  A
C3434      H3450   1.084       .  S
C3435      C3445   1.401       .  A
C3435      C3436   1.410       .  A
C3436      C3442   1.413       .  A
C3436      C3437   1.417       .  A
C3437      C3439   1.410       .  A
C3437      C3438   1.407       .  A
C3438      C3446   1.400       .  A
C3439      C3448   1.414       .  A
C3439      C3440   1.406       .  A
C3440      C3441   1.406       .  A
C3440      H3451   1.083       .  S
C3441      C3442   1.406       .  A
C3441      H3452   1.083       .  S
C3442      C3443   1.415       .  A
C3443      C3444   1.410       .  A
C3443      H3453   1.084       .  S
C3444      C3445   1.408       .  A
C3445      H3454   1.085       .  S
C3446      C3447   1.419       .  A
C3446      H3455   1.080       .  S
C3447      C3448   1.417       .  A
C3448      H3456   1.084       .  S
C3457      C3458   1.406       .  A
C3457      C3462   1.406       .  A
C3457      H3473   1.083       .  S
C3458      C3459   1.406       .  A
C3458      H3474   1.083       .  S
C3459      C3469   1.416       .  A
C3459      C3460   1.411       .  A
C3460      C3466   1.407       .  A
C3460      C3461   1.419       .  A
C3461      C3463   1.411       .  A
C3461      C3462   1.412       .  A
C3462      C3470   1.414       .  A
C3463      C3472   1.405       .  A
C3463      C3464   1.403       .  A
C3464      C3465   1.398       .  A
C3464      H3475   1.084       .  S
C3465      C3466   1.404       .  A
C3465      H3476   1.084       .  S
C3466      C3467   1.401       .  A
C3467      C3468   1.417       .  A
C3467      H3477   1.083       .  S
C3468      C3469   1.419       .  A
C3469      H3478   1.081       .  S
C3470      C3471   1.412       .  A
C3470      H3479   1.084       .  S
C3471      C3472   1.409       .  A
C3472      H3480   1.084       .  S
C3481      C3482   1.399       .  A
C3481      C3486   1.404   1_565  A
C3481      H3497   1.083   1_565  S
C3482      C3483   1.403       .  A
C3482      H3498   1.084       .  S
C3483      C3493   1.403       .  A
C3483      C3484   1.409       .  A
C3484      C3490   1.408       .  A
C3484      C3485   1.413       .  A
C3485      C3487   1.408   1_565  A
C3485      C3486   1.409   1_565  A
C3486      C3494   1.403       .  A
C3487      C3496   1.403       .  A
C3487      C3488   1.404   1_545  A
C3488      C3489   1.400       .  A
C3488      H3499   1.084   1_565  S
C3489      C3490   1.404       .  A
C3489      H3500   1.084       .  S
C3490      C3491   1.403       .  A
C3491      C3492   1.418       .  A
C3491      H3501   1.084       .  S
C3492      C3493   1.416       .  A
C3493      H3502   1.081       .  S
C3494      C3495   1.416       .  A
C3494      H3503   1.081       .  S
C3495      C3496   1.417       .  A
C3496      H3504   1.084       .  S
C3505      C3506   1.398       .  A
C3505      C3510   1.403       .  A
C3505      H3521   1.084       .  S
C3506      C3507   1.403       .  A
C3506      H3522   1.084       .  S
C3507      C3517   1.403       .  A
C3507      C3508   1.409       .  A
C3508      C3514   1.410       .  A
C3508      C3509   1.419       .  A
C3509      C3511   1.410       .  A
C3509      C3510   1.408       .  A
C3510      C3518   1.402       .  A
C3511      C3520   1.413       .  A
C3511      C3512   1.406       .  A
C3512      C3513   1.404       .  A
C3512      H3523   1.083       .  S
C3513      C3514   1.406       .  A
C3513      H3524   1.083       .  S
C3514      C3515   1.414       .  A
C3515      C3516   1.420       .  A
C3515      H3525   1.081       .  S
C3516      C3517   1.416       .  A
C3517      H3526   1.084       .  S
C3518      C3519   1.416       .  A
C3518      H3527   1.084       .  S
C3519      C3520   1.420       .  A
C3520      H3528   1.080       .  S
C3529      C3530   1.397       .  A
C3529      C3534   1.403       .  A
C3529      H3545   1.083       .  S
C3530      C3531   1.403       .  A
C3530      H3546   1.084       .  S
C3531      C3541   1.402       .  A
C3531      C3532   1.411       .  A
C3532      C3538   1.412       .  A
C3532      C3533   1.416       .  A
C3533      C3535   1.410       .  A
C3533      C3534   1.407       .  A
C3534      C3542   1.399       .  A
C3535      C3544   1.411       .  A
C3535      C3536   1.406       .  A
C3536      C3537   1.404       .  A
C3536      H3547   1.084       .  S
C3537      C3538   1.405       .  A
C3537      H3548   1.083       .  S
C3538      C3539   1.412       .  A
C3539      C3540   1.410       .  A
C3539      H3549   1.084       .  S
C3540      C3541   1.408       .  A
C3541      H3550   1.084       .  S
C3542      C3543   1.417       .  A
C3542      H3551   1.083       .  S
C3543      C3544   1.418       .  A
C3544      H3552   1.080       .  S
C3553      C3554   1.395       .  A
C3553      C3558   1.402       .  A
C3553      H3569   1.084       .  S
C3554      C3555   1.403       .  A
C3554      H3570   1.084       .  S
C3555      C3565   1.398       .  A
C3555      C3556   1.408       .  A
C3556      C3562   1.409       .  A
C3556      C3557   1.416       .  A
C3557      C3559   1.414       .  A
C3557      C3558   1.409       .  A
C3558      C3566   1.397       .  A
C3559      C3568   1.417       .  A
C3559      C3560   1.406       .  A
C3560      C3561   1.406       .  A
C3560      H3571   1.083       .  S
C3561      C3562   1.406       .  A
C3561      H3572   1.083       .  S
C3562      C3563   1.412       .  A
C3563      C3564   1.418       .  A
C3563      H3573   1.084       .  S
C3564      C3565   1.418       .  A
C3565      H3574   1.080       .  S
C3566      C3567   1.408       .  A
C3566      H3575   1.085       .  S
C3567      C3568   1.411       .  A
C3568      H3576   1.083       .  S
C3577      C3578   1.393       .  A
C3577      C3582   1.403       .  A
C3577      H3593   1.084       .  S
C3578      C3579   1.401       .  A
C3578      H3594   1.084       .  S
C3579      C3589   1.396       .  A
C3579      C3580   1.410       .  A
C3580      C3586   1.413       .  A
C3580      C3581   1.416       .  A
C3581      C3583   1.409       .  A
C3581      C3582   1.408       .  A
C3582      C3590   1.397       .  A
C3583      C3592   1.415       .  A
C3583      C3584   1.408       .  A
C3584      C3585   1.408       .  A
C3584      H3595   1.083       .  S
C3585      C3586   1.407       .  A
C3585      H3596   1.083       .  S
C3586      C3587   1.418       .  A
C3587      C3588   1.412       .  A
C3587      H3597   1.084       .  S
C3588      C3589   1.404       .  A
C3589      H3598   1.085       .  S
C3590      C3591   1.417       .  A
C3590      H3599   1.078       .  S
C3591      C3592   1.421       .  A
C3592      H3600   1.084       .  S
C3601      C3602   1.398       .  A
C3601      C3606   1.403       .  A
C3601      H3617   1.083       .  S
C3602      C3603   1.403       .  A
C3602      H3618   1.084       .  S
C3603      C3613   1.398       .  A
C3603      C3604   1.407       .  A
C3604      C3610   1.411       .  A
C3604      C3605   1.415       .  A
C3605      C3607   1.411       .  A
C3605      C3606   1.412       .  A
C3606      C3614   1.403       .  A
C3607      C3616   1.410       .  A
C3607      C3608   1.405       .  A
C3608      C3609   1.403       .  A
C3608      H3619   1.083       .  S
C3609      C3610   1.405       .  A
C3609      H3620   1.083       .  S
C3610      C3611   1.411       .  A
C3611      C3612   1.416       .  A
C3611      H3621   1.080       .  S
C3612      C3613   1.418       .  A
C3613      H3622   1.083       .  S
C3614      C3615   1.408       .  A
C3614      H3623   1.084       .  S
C3615      C3616   1.409       .  A
C3616      H3624   1.084       .  S
C3625      C3626   1.401       .  A
C3625      C3630   1.405       .  A
C3625      H3641   1.083       .  S
C3626      C3627   1.405       .  A
C3626      H3642   1.084       .  S
C3627      C3637   1.409       .  A
C3627      C3628   1.410       .  A
C3628      C3634   1.408       .  A
C3628      C3629   1.417       .  A
C3629      C3631   1.409       .  A
C3629      C3630   1.409       .  A
C3630      C3638   1.408       .  A
C3631      C3640   1.405       .  A
C3631      C3632   1.404       .  A
C3632      C3633   1.400       .  A
C3632      H3643   1.084       .  S
C3633      C3634   1.404       .  A
C3633      H3644   1.084       .  S
C3634      C3635   1.404       .  A
C3635      C3636   1.419       .  A
C3635      H3645   1.084       .  S
C3636      C3637   1.418       .  A
C3637      H3646   1.079       .  S
C3638      C3639   1.418       .  A
C3638      H3647   1.079       .  S
C3639      C3640   1.418       .  A
C3640      H3648   1.084       .  S
C3649      C3650   1.403       .  A
C3649      C3654   1.405       .  A
C3649      H3665   1.084       .  S
C3650      C3651   1.405       .  A
C3650      H3666   1.083       .  S
C3651      C3661   1.410       .  A
C3651      C3652   1.412       .  A
C3652      C3658   1.410       .  A
C3652      C3653   1.414       .  A
C3653      C3655   1.408       .  A
C3653      C3654   1.409       .  A
C3654      C3662   1.407       .  A
C3655      C3664   1.399       .  A
C3655      C3656   1.403       .  A
C3656      C3657   1.397       .  A
C3656      H3667   1.084       .  S
C3657      C3658   1.403       .  A
C3657      H3668   1.084       .  S
C3658      C3659   1.400       .  A
C3659      C3660   1.407       .  A
C3659      H3669   1.084       .  S
C3660      C3661   1.409       .  A
C3661      H3670   1.084       .  S
C3662      C3663   1.419       .  A
C3662      H3671   1.082       .  S
C3663      C3664   1.417       .  A
C3664      H3672   1.082       .  S
C3673      C3674   1.403       .  A
C3673      C3678   1.406       .  A
C3673      H3689   1.083       .  S
C3674      C3675   1.405       .  A
C3674      H3690   1.083       .  S
C3675      C3685   1.409       .  A
C3675      C3676   1.409       .  A
C3676      C3682   1.406       .  A
C3676      C3677   1.415       .  A
C3677      C3679   1.412       .  A
C3677      C3678   1.410       .  A
C3678      C3686   1.408       .  A
C3679      C3688   1.404       .  A
C3679      C3680   1.402       .  A
C3680      C3681   1.398       .  A
C3680      H3691   1.084       .  S
C3681      C3682   1.405       .  A
C3681      H3692   1.084       .  S
C3682      C3683   1.401       .  A
C3683      C3684   1.422       .  A
C3683      H3693   1.080       .  S
C3684      C3685   1.421       .  A
C3685      H3694   1.084       .  S
C3686      C3687   1.411       .  A
C3686      H3695   1.084       .  S
C3687      C3688   1.404       .  A
C3688      H3696   1.084       .  S
C3697      C3698   1.397   1_554  A
C3697      C3702   1.402       .  A
C3697      H3713   1.084       .  S
C3698      C3699   1.405       .  A
C3698      H3714   1.084       .  S
C3699      C3709   1.399       .  A
C3699      C3700   1.403       .  A
C3700      C3706   1.407       .  A
C3700      C3701   1.413   1_556  A
C3701      C3703   1.408       .  A
C3701      C3702   1.409       .  A
C3702      C3710   1.400       .  A
C3703      C3712   1.405       .  A
C3703      C3704   1.405       .  A
C3704      C3705   1.401   1_554  A
C3704      H3715   1.084       .  S
C3705      C3706   1.405       .  A
C3705      H3716   1.083       .  S
C3706      C3707   1.408       .  A
C3707      C3708   1.424       .  A
C3707      H3717   1.078       .  S
C3708      C3709   1.420       .  A
C3709      H3718   1.068       .  S
C3710      C3711   1.415       .  A
C3710      H3719   1.084       .  S
C3711      C3712   1.419       .  A
C3712      H3720   1.080       .  S
C3721      C3722   1.401       .  A
C3721      C3726   1.404       .  A
C3721      H3737   1.084       .  S
C3722      C3723   1.405       .  A
C3722      H3738   1.083       .  S
C3723      C3733   1.405       .  A
C3723      C3724   1.407       .  A
C3724      C3730   1.407       .  A
C3724      C3725   1.414       .  A
C3725      C3727   1.411       .  A
C3725      C3726   1.412       .  A
C3726      C3734   1.407       .  A
C3727      C3736   1.403       .  A
C3727      C3728   1.403       .  A
C3728      C3729   1.399       .  A
C3728      H3739   1.083       .  S
C3729      C3730   1.403       .  A
C3729      H3740   1.084       .  S
C3730      C3731   1.401       .  A
C3731      C3732   1.419       .  A
C3731      H3741   1.085       .  S
C3732      C3733   1.422       .  A
C3733      H3742   1.080       .  S
C3734      C3735   1.408       .  A
C3734      H3743   1.084       .  S
C3735      C3736   1.407       .  A
C3736      H3744   1.084       .  S
C3745      C3746   1.399       .  A
C3745      C3750   1.403       .  A
C3745      H3761   1.086       .  S
C3746      C3747   1.405       .  A
C3746      H3762   1.077       .  S
C3747      C3757   1.401       .  A
C3747      C3748   1.407       .  A
C3748      C3754   1.411       .  A
C3748      C3749   1.416       .  A
C3749      C3751   1.412       .  A
C3749      C3750   1.411       .  A
C3750      C3758   1.404       .  A
C3751      C3760   1.411       .  A
C3751      C3752   1.405       .  A
C3752      C3753   1.403       .  A
C3752      H3763   1.083       .  S
C3753      C3754   1.405       .  A
C3753      H3764   1.084       .  S
C3754      C3755   1.411       .  A
C3755      C3756   1.416       .  A
C3755      H3765   1.081       .  S
C3756      C3757   1.419       .  A
C3757      H3766   1.075       .  S
C3758      C3759   1.409       .  A
C3758      H3767   1.085       .  S
C3759      C3760   1.409       .  A
C3760      H3768   1.084       .  S
C3769      C3770   1.398   1_556  A
C3769      C3774   1.404       .  A
C3769      H3785   1.084       .  S
C3770      C3771   1.403       .  A
C3770      H3786   1.083       .  S
C3771      C3781   1.401       .  A
C3771      C3772   1.408       .  A
C3772      C3778   1.409       .  A
C3772      C3773   1.413   1_554  A
C3773      C3775   1.405       .  A
C3773      C3774   1.405       .  A
C3774      C3782   1.401       .  A
C3775      C3784   1.405       .  A
C3775      C3776   1.405       .  A
C3776      C3777   1.400       .  A
C3776      H3787   1.082       .  S
C3777      C3778   1.404   1_556  A
C3777      H3788   1.085   1_556  S
C3778      C3779   1.404       .  A
C3779      C3780   1.417       .  A
C3779      H3789   1.082       .  S
C3780      C3781   1.416       .  A
C3781      H3790   1.084       .  S
C3782      C3783   1.419       .  A
C3782      H3791   1.071       .  S
C3783      C3784   1.424       .  A
C3784      H3792   1.075       .  S
C3793      C3794   1.400       .  A
C3793      C3798   1.405       .  A
C3793      H3809   1.084       .  S
C3794      C3795   1.404       .  A
C3794      H3810   1.084       .  S
C3795      C3805   1.405       .  A
C3795      C3796   1.406       .  A
C3796      C3802   1.404       .  A
C3796      C3797   1.414       .  A
C3797      C3799   1.407       .  A
C3797      C3798   1.403       .  A
C3798      C3806   1.401       .  A
C3799      C3808   1.409       .  A
C3799      C3800   1.405       .  A
C3800      C3801   1.402       .  A
C3800      H3811   1.083       .  S
C3801      C3802   1.406       .  A
C3801      H3812   1.084       .  S
C3802      C3803   1.406       .  A
C3803      C3804   1.424       .  A
C3803      H3813   1.074       .  S
C3804      C3805   1.420       .  A
C3805      H3814   1.079       .  S
C3806      C3807   1.421       .  A
C3806      H3815   1.081       .  S
C3807      C3808   1.421       .  A
C3808      H3816   1.074       .  S
C3817      C3818   1.399       .  A
C3817      C3822   1.403       .  A
C3817      H3833   1.084       .  S
C3818      C3819   1.405       .  A
C3818      H3834   1.083       .  S
C3819      C3829   1.401       .  A
C3819      C3820   1.406       .  A
C3820      C3826   1.409       .  A
C3820      C3821   1.413       .  A
C3821      C3823   1.410       .  A
C3821      C3822   1.413       .  A
C3822      C3830   1.405       .  A
C3823      C3832   1.404       .  A
C3823      C3824   1.404       .  A
C3824      C3825   1.400       .  A
C3824      H3835   1.083       .  S
C3825      C3826   1.403       .  A
C3825      H3836   1.083       .  S
C3826      C3827   1.405       .  A
C3827      C3828   1.419       .  A
C3827      H3837   1.085       .  S
C3828      C3829   1.423       .  A
C3829      H3838   1.080       .  S
C3830      C3831   1.406       .  A
C3830      H3839   1.084       .  S
C3831      C3832   1.409       .  A
C3832      H3840   1.084       .  S
C3841      C3842   1.397       .  A
C3841      C3846   1.402       .  A
C3841      H3857   1.084       .  S
C3842      C3843   1.403       .  A
C3842      H3858   1.084       .  S
C3843      C3853   1.397       .  A
C3843      C3844   1.406       .  A
C3844      C3850   1.411       .  A
C3844      C3845   1.414       .  A
C3845      C3847   1.411       .  A
C3845      C3846   1.412       .  A
C3846      C3854   1.401       .  A
C3847      C3856   1.409       .  A
C3847      C3848   1.405       .  A
C3848      C3849   1.404       .  A
C3848      H3859   1.083       .  S
C3849      C3850   1.406       .  A
C3849      H3860   1.083       .  S
C3850      C3851   1.412       .  A
C3851      C3852   1.417       .  A
C3851      H3861   1.080       .  S
C3852      C3853   1.418       .  A
C3853      H3862   1.084       .  S
C3854      C3855   1.406       .  A
C3854      H3863   1.084       .  S
C3855      C3856   1.409       .  A
C3856      H3864   1.084       .  S
C3865      C3866   1.409       .  A
C3865      C3870   1.408       .  A
C3865      H3881   1.083       .  S
C3866      C3867   1.408       .  A
C3866      H3882   1.083       .  S
C3867      C3877   1.420       .  A
C3867      C3868   1.413       .  A
C3868      C3874   1.410       .  A
C3868      C3869   1.416       .  A
C3869      C3871   1.405       .  A
C3869      C3870   1.410       .  A
C3870      C3878   1.417       .  A
C3871      C3880   1.392       .  A
C3871      C3872   1.402       .  A
C3872      C3873   1.391       .  A
C3872      H3883   1.084       .  S
C3873      C3874   1.400       .  A
C3873      H3884   1.084       .  S
C3874      C3875   1.394       .  A
C3875      C3876   1.404       .  A
C3875      H3885   1.085       .  S
C3876      C3877   1.413       .  A
C3877      H3886   1.083       .  S
C3878      C3879   1.421       .  A
C3878      H3887   1.084       .  S
C3879      C3880   1.419       .  A
C3880      H3888   1.080       .  S
C3889      C3890   1.396       .  A
C3889      C3894   1.402       .  A
C3889      H3905   1.084       .  S
C3890      C3891   1.403       .  A
C3890      H3906   1.084       .  S
C3891      C3901   1.396       .  A
C3891      C3892   1.407       .  A
C3892      C3898   1.410       .  A
C3892      C3893   1.414       .  A
C3893      C3895   1.411       .  A
C3893      C3894   1.411       .  A
C3894      C3902   1.399       .  A
C3895      C3904   1.410       .  A
C3895      C3896   1.405       .  A
C3896      C3897   1.403       .  A
C3896      H3907   1.083       .  S
C3897      C3898   1.406       .  A
C3897      H3908   1.084       .  S
C3898      C3899   1.411       .  A
C3899      C3900   1.418       .  A
C3899      H3909   1.080       .  S
C3900      C3901   1.416       .  A
C3901      H3910   1.082       .  S
C3902      C3903   1.406       .  A
C3902      H3911   1.084       .  S
C3903      C3904   1.409       .  A
C3904      H3912   1.084       .  S
C3913      C3914   1.403       .  A
C3913      C3918   1.407       .  A
C3913      H3929   1.084       .  S
C3914      C3915   1.405       .  A
C3914      H3930   1.083       .  S
C3915      C3925   1.411       .  A
C3915      C3916   1.410       .  A
C3916      C3922   1.407       .  A
C3916      C3917   1.418       .  A
C3917      C3919   1.406       .  A
C3917      C3918   1.404       .  A
C3918      C3926   1.408       .  A
C3919      C3928   1.408       .  A
C3919      C3920   1.405       .  A
C3920      C3921   1.401       .  A
C3920      H3931   1.084       .  S
C3921      C3922   1.404       .  A
C3921      H3932   1.084       .  S
C3922      C3923   1.404       .  A
C3923      C3924   1.419       .  A
C3923      H3933   1.084       .  S
C3924      C3925   1.418       .  A
C3925      H3934   1.079       .  S
C3926      C3927   1.427       .  A
C3926      H3935   1.076       .  S
C3927      C3928   1.421       .  A
C3928      H3936   1.073       .  S
C3937      C3938   1.396       .  A
C3937      C3942   1.402       .  A
C3937      H3953   1.084       .  S
C3938      C3939   1.403       .  A
C3938      H3954   1.084       .  S
C3939      C3949   1.397       .  A
C3939      C3940   1.407       .  A
C3940      C3946   1.412       .  A
C3940      C3941   1.417       .  A
C3941      C3943   1.411       .  A
C3941      C3942   1.412       .  A
C3942      C3950   1.402       .  A
C3943      C3952   1.414       .  A
C3943      C3944   1.406       .  A
C3944      C3945   1.406       .  A
C3944      H3955   1.083       .  S
C3945      C3946   1.406       .  A
C3945      H3956   1.083       .  S
C3946      C3947   1.416       .  A
C3947      C3948   1.417       .  A
C3947      H3957   1.081       .  S
C3948      C3949   1.416       .  A
C3949      H3958   1.085       .  S
C3950      C3951   1.407       .  A
C3950      H3959   1.084       .  S
C3951      C3952   1.412       .  A
C3952      H3960   1.084       .  S
C3961      C3962   1.401       .  A
C3961      C3966   1.405       .  A
C3961      H3977   1.083       .  S
C3962      C3963   1.404       .  A
C3962      H3978   1.084       .  S
C3963      C3973   1.407       .  A
C3963      C3964   1.410       .  A
C3964      C3970   1.408       .  A
C3964      C3965   1.415       .  A
C3965      C3967   1.413       .  A
C3965      C3966   1.410       .  A
C3966      C3974   1.406       .  A
C3967      C3976   1.407       .  A
C3967      C3968   1.404       .  A
C3968      C3969   1.400       .  A
C3968      H3979   1.083       .  S
C3969      C3970   1.404       .  A
C3969      H3980   1.083       .  S
C3970      C3971   1.404       .  A
C3971      C3972   1.417       .  A
C3971      H3981   1.082       .  S
C3972      C3973   1.415       .  A
C3973      H3982   1.084       .  S
C3974      C3975   1.410       .  A
C3974      H3983   1.084       .  S
C3975      C3976   1.406       .  A
C3976      H3984   1.084       .  S
C3985      C3986   1.402       .  A
C3985      C3990   1.405   1_655  A
C3985      H4001   1.083   1_655  S
C3986      C3987   1.405       .  A
C3986      H4002   1.083       .  S
C3987      C3997   1.407       .  A
C3987      C3988   1.409       .  A
C3988      C3994   1.408       .  A
C3988      C3989   1.413       .  A
C3989      C3991   1.409   1_655  A
C3989      C3990   1.409   1_655  A
C3990      C3998   1.407       .  A
C3991      C4000   1.399       .  A
C3991      C3992   1.403   1_455  A
C3992      C3993   1.397       .  A
C3992      H4003   1.084   1_655  S
C3993      C3994   1.403       .  A
C3993      H4004   1.083       .  S
C3994      C3995   1.400       .  A
C3995      C3996   1.417       .  A
C3995      H4005   1.084       .  S
C3996      C3997   1.418       .  A
C3997      H4006   1.079       .  S
C3998      C3999   1.419       .  A
C3998      H4007   1.081       .  S
C3999      C4000   1.415       .  A
C4000      H4008   1.084       .  S
C4009      C4010   1.400       .  A
C4009      C4014   1.405       .  A
C4009      H4025   1.084       .  S
C4010      C4011   1.403       .  A
C4010      H4026   1.084       .  S
C4011      C4021   1.407       .  A
C4011      C4012   1.413       .  A
C4012      C4018   1.409       .  A
C4012      C4013   1.416       .  A
C4013      C4015   1.411       .  A
C4013      C4014   1.406       .  A
C4014      C4022   1.402       .  A
C4015      C4024   1.413       .  A
C4015      C4016   1.405       .  A
C4016      C4017   1.404       .  A
C4016      H4027   1.083       .  S
C4017      C4018   1.406       .  A
C4017      H4028   1.083       .  S
C4018      C4019   1.408       .  A
C4019      C4020   1.411       .  A
C4019      H4029   1.084       .  S
C4020      C4021   1.406       .  A
C4021      H4030   1.084       .  S
C4022      C4023   1.421       .  A
C4022      H4031   1.081       .  S
C4023      C4024   1.417       .  A
C4024      H4032   1.084       .  S
C4033      C4034   1.407       .  A
C4033      C4038   1.407       .  A
C4033      H4049   1.083       .  S
C4034      C4035   1.407       .  A
C4034      H4050   1.083       .  S
C4035      C4045   1.419       .  A
C4035      C4036   1.413       .  A
C4036      C4042   1.407       .  A
C4036      C4037   1.419       .  A
C4037      C4039   1.411       .  A
C4037      C4038   1.411       .  A
C4038      C4046   1.417       .  A
C4039      C4048   1.403       .  A
C4039      C4040   1.403       .  A
C4040      C4041   1.397       .  A
C4040      H4051   1.084       .  S
C4041      C4042   1.403       .  A
C4041      H4052   1.084       .  S
C4042      C4043   1.399       .  A
C4043      C4044   1.418       .  A
C4043      H4053   1.085       .  S
C4044      C4045   1.418       .  A
C4045      H4054   1.080       .  S
C4046      C4047   1.413       .  A
C4046      H4055   1.084       .  S
C4047      C4048   1.408       .  A
C4048      H4056   1.084       .  S
C4057      C4058   1.403       .  A
C4057      C4062   1.407   1_655  A
C4057      H4073   1.084   1_655  S
C4058      C4059   1.405       .  A
C4058      H4074   1.083       .  S
C4059      C4069   1.412       .  A
C4059      C4060   1.410       .  A
C4060      C4066   1.406       .  A
C4060      C4061   1.416       .  A
C4061      C4063   1.406   1_655  A
C4061      C4062   1.404   1_655  A
C4062      C4070   1.409       .  A
C4063      C4072   1.403       .  A
C4063      C4064   1.404   1_455  A
C4064      C4065   1.398       .  A
C4064      H4075   1.084   1_655  S
C4065      C4066   1.403       .  A
C4065      H4076   1.084       .  S
C4066      C4067   1.399       .  A
C4067      C4068   1.421       .  A
C4067      H4077   1.084       .  S
C4068      C4069   1.418       .  A
C4069      H4078   1.077       .  S
C4070      C4071   1.427       .  A
C4070      H4079   1.073       .  S
C4071      C4072   1.420       .  A
C4072      H4080   1.075       .  S
C4081      C4082   1.414       .  A
C4081      C4086   1.410       .  A
C4081      H4097   1.083       .  S
C4082      C4083   1.410       .  A
C4082      H4098   1.083       .  S
C4083      C4093   1.426       .  A
C4083      C4084   1.410       .  A
C4084      C4090   1.403       .  A
C4084      C4085   1.417       .  A
C4085      C4087   1.405       .  A
C4085      C4086   1.409       .  A
C4086      C4094   1.425       .  A
C4087      C4096   1.390       .  A
C4087      C4088   1.401       .  A
C4088      C4089   1.390       .  A
C4088      H4099   1.084       .  S
C4089      C4090   1.402       .  A
C4089      H4100   1.084       .  S
C4090      C4091   1.389       .  A
C4091      C4092   1.420       .  A
C4091      H4101   1.078       .  S
C4092      C4093   1.423       .  A
C4093      H4102   1.083       .  S
C4094      C4095   1.423       .  A
C4094      H4103   1.083       .  S
C4095      C4096   1.416       .  A
C4096      H4104   1.080       .  S
