geometry optimzed in LAMMPS
_audit_creation_date              2020-11-30 
_audit_creation_method            'lammps2cif' 
_symmetry_space_group_name_H-M    'P1' 
_symmetry_Int_Tables_number       1 
_symmetry_cell_setting            triclinic 
loop_ 
_symmetry_equiv_pos_as_xyz 
  x,y,z 
_cell_length_a                    53.96931826 
_cell_length_b                    53.98019929281774 
_cell_length_c                    25.93043843397056 
_cell_angle_alpha                 90.02180073904422 
_cell_angle_beta                  89.99258713858907 
_cell_angle_gamma                 90.00484277043505 
loop_ 
_atom_site_label 
_atom_site_type_symbol 
_atom_site_fract_x 
_atom_site_fract_y 
_atom_site_fract_z 
_atom_site_charge 
C1          C  0.18798621  0.05480897  0.40679646     0.85300
C2          C  0.21610459  0.05958172  0.41465343    -0.54900
C3          C  0.23100264  0.04590707  0.38277749     0.08200
C4          C  0.21574158  0.02911310  0.34680612     0.19200
C5          C  0.18306753  0.05999212  0.34863954    -0.55700
C6          C  0.19800198  0.04621831  0.31623226     0.08300
C7          C  0.18502336  0.02670440  0.41235213    -0.55200
C8          C  0.19952584  0.01291391  0.38118428     0.08900
H9          H  0.22334633  0.07222509  0.44345969     0.13400
H10         H  0.22692133  0.01769600  0.32405085    -0.00900
H11         H  0.16905702  0.07279857  0.33492511     0.13700
H12         H  0.17211818  0.01861845  0.43941044     0.13500
C13         C  0.30211296  0.05480128  0.40670934     0.85300
C14         C  0.30507263  0.02669304  0.41226521    -0.54900
C15         C  0.29057213  0.01290151  0.38109359     0.09800
C16         C  0.27436041  0.02910485  0.34673475     0.19200
C17         C  0.30705497  0.05997596  0.34855824    -0.55700
C18         C  0.29212771  0.04619350  0.31615320     0.08300
C19         C  0.27399982  0.05958195  0.41455521    -0.55200
C20         C  0.25910127  0.04590590  0.38272322     0.08900
H21         H  0.31798677  0.01860524  0.43928707     0.13400
H22         H  0.26317321  0.01768832  0.32399753    -0.00900
H23         H  0.32108394  0.07276714  0.33484603     0.13700
H24         H  0.26675475  0.07222857  0.44335374     0.13500
C25         C  0.30211521  0.44311802  0.40636982     0.85300
C26         C  0.27399760  0.43834472  0.41424245    -0.54900
C27         C  0.25909334  0.45205531  0.38249922     0.08200
C28         C  0.27434707  0.46887871  0.34658502     0.19200
C29         C  0.30701772  0.43798913  0.34818800    -0.55700
C30         C  0.29207605  0.45179756  0.31589536     0.08300
C31         C  0.30508898  0.47122024  0.41208669    -0.55200
C32         C  0.29057953  0.48504438  0.38100650     0.08900
H33         H  0.26675493  0.42567313  0.44297720     0.13400
H34         H  0.26316459  0.48031896  0.32390804    -0.00900
H35         H  0.32101918  0.42518996  0.33437658     0.13700
H36         H  0.31800137  0.47927462  0.43917731     0.13500
C37         C  0.18797932  0.44313585  0.40650882     0.85300
C38         C  0.18503543  0.47123649  0.41227967    -0.54900
C39         C  0.19953025  0.48505972  0.38114816     0.08200
C40         C  0.21573689  0.46889566  0.34667170     0.19200
C41         C  0.18304804  0.43803029  0.34833126    -0.55700
C42         C  0.19797668  0.45184143  0.31601327     0.08300
C43         C  0.21609532  0.43834491  0.41431880    -0.55200
C44         C  0.23099526  0.45205635  0.38253741     0.08900
H45         H  0.17215370  0.47928684  0.43944642     0.13400
H46         H  0.22691517  0.48033105  0.32396134    -0.00900
H47         H  0.16902270  0.42525153  0.33454212     0.13700
H48         H  0.22333680  0.42566681  0.44303662     0.13500
C49         C  0.30078920  0.44194520  0.16665671     0.85300
C50         C  0.30561575  0.47004862  0.15885135    -0.54900
C51         C  0.29194776  0.48495527  0.19072048     0.08200
C52         C  0.27511119  0.46971472  0.22662932     0.19200
C53         C  0.30594471  0.43699989  0.22480015    -0.55700
C54         C  0.29218242  0.45194243  0.25719551     0.08300
C55         C  0.27267925  0.43903092  0.16101176    -0.55200
C56         C  0.25889721  0.45353535  0.19218966     0.08900
H57         H  0.31828708  0.47727369  0.13008713     0.13400
H58         H  0.26370180  0.48090253  0.24938507    -0.00900
H59         H  0.31872659  0.42296725  0.23851327     0.13700
H60         H  0.26458621  0.42616040  0.13387894     0.13500
C61         C  0.18910015  0.44204988  0.16680251     0.85300
C62         C  0.21720402  0.43908525  0.16104746    -0.54900
C63         C  0.23103971  0.45356124  0.19220676     0.08200
C64         C  0.21488510  0.46977189  0.22669162     0.19200
C65         C  0.18398399  0.43711997  0.22496741    -0.55700
C66         C  0.19780527  0.45202678  0.25731362     0.08300
C67         C  0.18433850  0.47016707  0.15900162    -0.55200
C68         C  0.19806772  0.48504918  0.19081822     0.08900
H69         H  0.22524619  0.42620838  0.13385937     0.13400
H70         H  0.22632985  0.48093494  0.24942715    -0.00900
H71         H  0.17118957  0.42310645  0.23872993     0.13700
H72         H  0.17167514  0.47741903  0.13026124     0.13500
C73         C  0.18924723  0.05617108  0.16700509     0.85300
C74         C  0.18444312  0.02806420  0.15911209    -0.54900
C75         C  0.19812023  0.01314449  0.19087438     0.08200
C76         C  0.21495579  0.02837549  0.22683647     0.19200
C77         C  0.18409888  0.06107758  0.22518840    -0.55700
C78         C  0.19788002  0.04612130  0.25751269     0.08300
C79         C  0.21736180  0.05911538  0.16136640    -0.55200
C80         C  0.23116029  0.04459014  0.19246061     0.08900
H81         H  0.17176938  0.02083658  0.13035082     0.13400
H82         H  0.22637751  0.01717897  0.24952654    -0.00900
H83         H  0.17130624  0.07508922  0.23897900     0.13700
H84         H  0.22544669  0.07202790  0.13433291     0.13500
C85         C  0.30096713  0.05603705  0.16690620     0.85300
C86         C  0.27285520  0.05904137  0.16130668    -0.54900
C87         C  0.25902653  0.04455463  0.19242845     0.08200
C88         C  0.27519723  0.02831659  0.22679121     0.19200
C89         C  0.30612765  0.06095603  0.22508246    -0.55700
C90         C  0.29230332  0.04604406  0.25743533     0.08300
C91         C  0.30570647  0.02792348  0.15904299    -0.55200
C92         C  0.29199138  0.01304481  0.19082040     0.08900
H93         H  0.26479229  0.07197595  0.13430338     0.13400
H94         H  0.26375396  0.01714534  0.24948823    -0.00900
H95         H  0.31894081  0.07495580  0.23884671     0.13700
H96         H  0.31835627  0.02066256  0.13026765     0.13500
C97         C  0.43861567  0.19135772  0.40644858     0.85300
C98         C  0.43389655  0.21947556  0.41435491    -0.54900
C99         C  0.44760522  0.23435588  0.38256388     0.08200
C100        C  0.46438013  0.21907906  0.34656027     0.19200
C101        C  0.43342485  0.18646227  0.34827502    -0.55700
C102        C  0.44724099  0.20137993  0.31591753     0.08300
C103        C  0.46672359  0.18833198  0.41200038    -0.55200
C104        C  0.48055133  0.20281727  0.38088934     0.08900
H105        H  0.42125813  0.22673701  0.44315162     0.13400
H106        H  0.47582989  0.23024789  0.32385411    -0.00900
H107        H  0.42058967  0.17248174  0.33451469     0.13700
H108        H  0.47478711  0.17538562  0.43898044     0.13500
C109        C  0.43882815  0.30546802  0.40670539     0.85300
C110        C  0.46694143  0.30835451  0.41238720    -0.54900
C111        C  0.48071879  0.29384092  0.38120642     0.08200
C112        C  0.46449865  0.27768223  0.34674841     0.19200
C113        C  0.43369779  0.31042546  0.34855955    -0.55700
C114        C  0.44745909  0.29548114  0.31617261     0.08300
C115        C  0.43397837  0.27736582  0.41449959    -0.55200
C116        C  0.44764618  0.26244933  0.38264340     0.08900
H117        H  0.47503762  0.32121480  0.43953565     0.13400
H118        H  0.47590378  0.26648593  0.32398889    -0.00900
H119        H  0.42094107  0.32447911  0.33483856     0.13700
H120        H  0.42130025  0.27014823  0.44325931     0.13500
C121        C  0.05033073  0.19114522  0.40628760     0.85300
C122        C  0.02221257  0.18822466  0.41195875    -0.54900
C123        C  0.00841734  0.20276028  0.38086594     0.08200
C124        C  0.02462632  0.21895934  0.34648387     0.19200
C125        C  0.05545321  0.18622852  0.34809782    -0.55700
C126        C  0.04166844  0.20118839  0.31578763     0.08300
C127        C  0.05515745  0.21924594  0.41417485    -0.55200
C128        C  0.04147782  0.23417589  0.38244749     0.08900
H129        H  0.01412607  0.17531934  0.43900338     0.13400
H130        H  0.01320750  0.23016857  0.32380071    -0.00900
H131        H  0.06822014  0.17219647  0.33429329     0.13700
H132        H  0.06783743  0.22646471  0.44293372     0.13500
C133        C  0.05051701  0.30526306  0.40662100     0.85300
C134        C  0.05525197  0.27714065  0.41443555    -0.54900
C135        C  0.04152383  0.26227014  0.38258715     0.08200
C136        C  0.02472501  0.27756130  0.34671204     0.19200
C137        C  0.05566105  0.31017895  0.34846180    -0.55700
C138        C  0.04183981  0.29527677  0.31610530     0.08300
C139        C  0.02241713  0.30825673  0.41233763    -0.55200
C140        C  0.00857656  0.29379047  0.38118205     0.08900
H141        H  0.06790876  0.26987963  0.44317886     0.13400
H142        H  0.01327100  0.26640806  0.32396410    -0.00900
H143        H  0.06848235  0.32417035  0.33471027     0.13700
H144        H  0.01437835  0.32114603  0.43950497     0.13500
C145        C  0.43732485  0.19272374  0.16663748     0.85300
C146        C  0.46542682  0.18787884  0.15875925    -0.54900
C147        C  0.48036594  0.20150817  0.19059578     0.08200
C148        C  0.46515475  0.21833691  0.22660846     0.19200
C149        C  0.43238948  0.18754032  0.22479137    -0.55700
C150        C  0.44736446  0.20127460  0.25719523     0.08300
C151        C  0.43442675  0.22083857  0.16112293    -0.55200
C152        C  0.44897394  0.23458731  0.19227599     0.08900
H153        H  0.47263591  0.17521888  0.12994713     0.13400
H154        H  0.47637426  0.22972513  0.24935106    -0.00900
H155        H  0.41834228  0.17476980  0.23850636     0.13700
H156        H  0.42152177  0.22896434  0.13413026     0.13500
C157        C  0.43762751  0.30440660  0.16698858     0.85300
C158        C  0.43459037  0.27631161  0.16123590    -0.54900
C159        C  0.44905156  0.26244435  0.19233791     0.08200
C160        C  0.46531330  0.27856228  0.22678935     0.19200
C161        C  0.43271575  0.30952639  0.22517343    -0.55700
C162        C  0.44760922  0.29566848  0.25747306     0.08300
C163        C  0.46575645  0.30911471  0.15916386    -0.55200
C164        C  0.48061681  0.29535853  0.19090928     0.08900
H165        H  0.42166809  0.26829594  0.13411722     0.13400
H166        H  0.47646763  0.26709061  0.24947534    -0.00900
H167        H  0.41873404  0.32234805  0.23898016     0.13700
H168        H  0.47303744  0.32177434  0.13044843     0.13500
C169        C  0.05175111  0.30410556  0.16692384     0.85300
C170        C  0.02364708  0.30896208  0.15911090    -0.54900
C171        C  0.00871293  0.29528218  0.19087693     0.08200
C172        C  0.02392766  0.27840314  0.22673317     0.19200
C173        C  0.05668633  0.30919777  0.22510369    -0.55700
C174        C  0.04171583  0.29542390  0.25740714     0.08300
C175        C  0.05463305  0.27599987  0.16113837    -0.55200
C176        C  0.04009864  0.26220597  0.19224380     0.08900
H177        H  0.01643693  0.32166384  0.13040522     0.13400
H178        H  0.01271739  0.26698724  0.24943611    -0.00900
H179        H  0.07072902  0.32195454  0.23890504     0.13700
H180        H  0.06749524  0.26792412  0.13396246     0.13500
C181        C  0.05145486  0.19243009  0.16648841     0.85300
C182        C  0.05447465  0.22053081  0.16093221    -0.54900
C183        C  0.04001685  0.23435164  0.19213510     0.08200
C184        C  0.02377275  0.21818554  0.22651402     0.19200
C185        C  0.05637976  0.18723966  0.22464089    -0.55700
C186        C  0.04149110  0.20105162  0.25706732     0.08300
C187        C  0.02332542  0.18771940  0.15865583    -0.55200
C188        C  0.00846527  0.20142822  0.19054573     0.08900
H189        H  0.06739148  0.22859124  0.13386671     0.13400
H190        H  0.01262016  0.22962514  0.24928900    -0.00900
H191        H  0.07037557  0.17441306  0.23833828     0.13700
H192        H  0.01604953  0.17509825  0.12984407     0.13500
C193        C  0.18767967  0.44267447  0.66675377     0.85300
C194        C  0.21579304  0.43789634  0.65888964    -0.54900
C195        C  0.23069742  0.45157487  0.69071162     0.08200
C196        C  0.21544368  0.46837793  0.72671066     0.19200
C197        C  0.18275110  0.43750861  0.72492214    -0.55700
C198        C  0.19768122  0.45129646  0.75731768     0.08300
C199        C  0.18472238  0.47078392  0.66119017    -0.55200
C200        C  0.19922768  0.48457861  0.69235581     0.08900
H201        H  0.22303417  0.42525148  0.63008352     0.13400
H202        H  0.22663222  0.47979489  0.74944637    -0.00900
H203        H  0.16872390  0.42472030  0.73865221     0.13700
H204        H  0.17180683  0.47886904  0.63416694     0.13500
C205        C  0.30181327  0.44268425  0.66659967     0.85300
C206        C  0.30477195  0.47078931  0.66103514    -0.54900
C207        C  0.29027113  0.48457749  0.69221491     0.08200
C208        C  0.27406090  0.46837643  0.72659457     0.19200
C209        C  0.30674051  0.43750406  0.72475004    -0.55700
C210        C  0.29180747  0.45127609  0.75715857     0.08300
C211        C  0.27369428  0.43790676  0.65875437    -0.55200
C212        C  0.25879740  0.45157990  0.69063416     0.08900
H213        H  0.31767441  0.47887540  0.63397127     0.13400
H214        H  0.26288195  0.47979187  0.74934907    -0.00900
H215        H  0.32075587  0.42470170  0.73845918     0.13700
H216        H  0.26645086  0.42526053  0.62995525     0.13500
C217        C  0.18768421  0.05436194  0.66707220     0.85300
C218        C  0.18471349  0.02625937  0.66136302    -0.54900
C219        C  0.19922122  0.01243691  0.69244794     0.08200
C220        C  0.21545347  0.02860528  0.72687146     0.19200
C221        C  0.18278393  0.05949504  0.72525865    -0.55700
C222        C  0.19772701  0.04569016  0.75755982     0.08300
C223        C  0.21580123  0.05913571  0.65920100    -0.55200
C224        C  0.23070564  0.04542875  0.69095344     0.08900
H225        H  0.17180661  0.01820238  0.63426286     0.13400
H226        H  0.22663607  0.01716624  0.74955561    -0.00900
H227        H  0.16878554  0.07229828  0.73906691     0.13700
H228        H  0.22304298  0.07180575  0.63046215     0.13500
C229        C  0.30181262  0.05435442  0.66693856     0.85300
C230        C  0.27369730  0.05914806  0.65914305    -0.54900
C231        C  0.25880238  0.04543260  0.69092013     0.08200
C232        C  0.27406579  0.02859273  0.72677305     0.19200
C233        C  0.30675649  0.05946109  0.72510109    -0.55700
C234        C  0.29183179  0.04565066  0.75741986     0.08300
C235        C  0.30475901  0.02625566  0.66115580    -0.55200
C236        C  0.29026787  0.01243068  0.69228096     0.08900
H237        H  0.26645277  0.07182914  0.63043411     0.13400
H238        H  0.26288815  0.01715492  0.74947772    -0.00900
H239        H  0.32078368  0.07224057  0.73888038     0.13700
H240        H  0.31763891  0.01820657  0.63398402     0.13500
C241        C  0.18886350  0.44146395  0.90660121     0.85300
C242        C  0.18413051  0.46958056  0.91448333    -0.54900
C243        C  0.19783485  0.48446430  0.88268628     0.08200
C244        C  0.21461804  0.46919125  0.84668332     0.19200
C245        C  0.18369139  0.43655230  0.84842124    -0.55700
C246        C  0.19750813  0.45146207  0.81604903     0.08300
C247        C  0.21697752  0.43846152  0.91216725    -0.55200
C248        C  0.23079824  0.45295068  0.88102358     0.08900
H249        H  0.17149342  0.47684029  0.94328409     0.13400
H250        H  0.22605492  0.48036161  0.82396524    -0.00900
H251        H  0.17087885  0.42255000  0.83466695     0.13700
H252        H  0.22504570  0.42552557  0.93916081     0.13500
C253        C  0.30058279  0.44134002  0.90637081     0.85300
C254        C  0.27246978  0.43839305  0.91202466    -0.54900
C255        C  0.25866499  0.45291429  0.88094318     0.08200
C256        C  0.27486326  0.46912584  0.84654777     0.19200
C257        C  0.30572545  0.43642380  0.84819114    -0.55700
C258        C  0.29193763  0.45137703  0.81587122     0.08300
C259        C  0.30538997  0.46944407  0.91424216    -0.55200
C260        C  0.29170518  0.48435768  0.88249171     0.08900
H261        H  0.26438871  0.42548201  0.93906533     0.13400
H262        H  0.26343603  0.48032231  0.82386746    -0.00900
H263        H  0.31851755  0.42241147  0.83440052     0.13700
H264        H  0.31806989  0.47667434  0.94298851     0.13500
C265        C  0.30072611  0.05543505  0.90661244     0.85300
C266        C  0.30548873  0.02731964  0.91438372    -0.54900
C267        C  0.29175307  0.01244746  0.88256879     0.08200
C268        C  0.27492989  0.02772938  0.84672523     0.19200
C269        C  0.30583857  0.06037709  0.84845136    -0.55700
C270        C  0.29200982  0.04547306  0.81610854     0.08300
C271        C  0.27262490  0.05840638  0.91237946    -0.55200
C272        C  0.25878341  0.04394034  0.88122309     0.08900
H273        H  0.31816073  0.02006212  0.94310145     0.13400
H274        H  0.26347927  0.01656852  0.82400288    -0.00900
H275        H  0.31863523  0.07438930  0.83469115     0.13700
H276        H  0.26458683  0.07128263  0.93957336     0.13500
C277        C  0.18904129  0.05558458  0.90681056     0.85300
C278        C  0.21715250  0.05849753  0.91242878    -0.54900
C279        C  0.23092699  0.04398036  0.88125494     0.08200
C280        C  0.21470618  0.02779448  0.84684356     0.19200
C281        C  0.18387705  0.06051071  0.84866029    -0.55700
C282        C  0.19763113  0.04555906  0.81626777     0.08300
C283        C  0.18421926  0.02747821  0.91465568    -0.55200
C284        C  0.19787890  0.01256004  0.88278346     0.08900
H285        H  0.22525051  0.07137473  0.93954149     0.13400
H286        H  0.22611013  0.01660310  0.82408530    -0.00900
H287        H  0.17109403  0.07454048  0.83493946     0.13700
H288        H  0.17155629  0.02025948  0.94344258     0.13500
In289      In  0.14735722  0.06270087  0.53682209     1.36900
C290        C  0.14418487  0.01245395  0.53648769     0.76400
O291        O  0.14863560  0.06028756  0.44987032    -0.62100
O292        O  0.18017358  0.07406051  0.48913366    -0.53000
C293        C  0.11191107  0.09663695  0.53691466     0.69100
O294        O  0.10715039  0.07378451  0.53628427    -0.47800
C295        C  0.17112287  0.06531466  0.62627424     0.73800
O296        O  0.12510185  0.02603027  0.53632227    -0.59700
O297        O  0.17995112  0.07401785  0.58513833    -0.49800
O298        O  0.16412947  0.02447871  0.53679487    -0.56100
C299        C  0.17139568  0.06567224  0.44766560     0.83900
O300        O  0.13459878  0.10200274  0.53754708    -0.58000
O301        O  0.14839523  0.05981062  0.62371242    -0.61300
In302      In  0.05866982  0.15101271  0.53676019     1.36900
C303        C  0.00843872  0.14790391  0.53723807     0.76400
O304        O  0.05601674  0.15242423  0.62363777    -0.62100
O305        O  0.06987510  0.18391466  0.58432306    -0.53000
C306        C  0.09275128  0.11570788  0.53687945     0.69100
O307        O  0.06991221  0.11085143  0.53618441    -0.47800
C308        C  0.06127746  0.17460352  0.44713151     0.73800
O309        O  0.02198230  0.12879950  0.53820436    -0.59700
O310        O  0.07007481  0.18345790  0.48816694    -0.49800
O311        O  0.02049182  0.16782037  0.53612745    -0.56100
C312        C  0.06139460  0.17518709  0.62575430     0.83900
O313        O  0.09802362  0.13841201  0.53751581    -0.58000
O314        O  0.05570217  0.15190428  0.44985808    -0.61300
In315      In  0.43066397  0.15123043  0.53695365     1.36900
C316        C  0.48089987  0.14796205  0.53728535     0.76400
O317        O  0.43316728  0.15212734  0.44996737    -0.62100
O318        O  0.41917660  0.18373823  0.48862838    -0.53000
C319        C  0.39675478  0.11583246  0.53729115     0.69100
O320        O  0.41959419  0.11106126  0.53558949    -0.47800
C321        C  0.42790471  0.17540203  0.62591022     0.73800
O322        O  0.46728573  0.12891774  0.53847746    -0.59700
O323        O  0.41950021  0.18415352  0.58444497    -0.49800
O324        O  0.46891723  0.16791834  0.53605096    -0.56100
C325        C  0.42769863  0.17485189  0.44738022     0.83900
O326        O  0.39139444  0.13850379  0.53886307    -0.58000
O327        O  0.43323022  0.15262509  0.62382699    -0.61300
In328      In  0.34237794  0.06270533  0.53706144     1.36900
C329        C  0.34557191  0.01249079  0.53705998     0.76400
O330        O  0.34115460  0.05990693  0.62390568    -0.62100
O331        O  0.30959769  0.07387059  0.58492099    -0.53000
C332        C  0.37768500  0.09670459  0.53733866     0.69100
O333        O  0.38252710  0.07388008  0.53574401    -0.47800
C334        C  0.31864257  0.06568474  0.44763552     0.73800
O335        O  0.36465301  0.02606946  0.53779406    -0.59700
O336        O  0.30978384  0.07416658  0.48894797    -0.49800
O337        O  0.32562232  0.02449988  0.53640379    -0.56100
C338        C  0.31839373  0.06530250  0.62620474     0.83900
O339        O  0.35499450  0.10199830  0.53888830    -0.58000
O340        O  0.34137737  0.06023259  0.45010686    -0.61300
In341      In  0.43082661  0.34625358  0.53644256     1.36900
C342        C  0.48107156  0.34937110  0.53597191     0.76400
O343        O  0.43364719  0.34535934  0.62335685    -0.62100
O344        O  0.41936673  0.31379681  0.58493236    -0.53000
C345        C  0.39687143  0.38163958  0.53639533     0.69100
O346        O  0.41972138  0.38643540  0.53705292    -0.47800
C347        C  0.42796319  0.32209553  0.44747332     0.73800
O348        O  0.46751676  0.36846286  0.53498151    -0.59700
O349        O  0.41954585  0.31336345  0.48895077    -0.49800
O350        O  0.46902449  0.32944961  0.53710096    -0.56100
C351        C  0.42808052  0.32265718  0.62603494     0.83900
O352        O  0.39152600  0.35895364  0.53573386    -0.58000
O353        O  0.43334375  0.34485769  0.44955582    -0.61300
In354      In  0.34241975  0.43474174  0.53659522     1.36900
C355        C  0.34558236  0.48496037  0.53695094     0.76400
O356        O  0.34140097  0.43765604  0.44971918    -0.62100
O357        O  0.30983719  0.42344405  0.48827438    -0.53000
C358        C  0.37777393  0.40075433  0.53643355     0.69100
O359        O  0.38259774  0.42359458  0.53701615    -0.47800
C360        C  0.31839977  0.43181234  0.62574354     0.73800
O361        O  0.36467550  0.47139689  0.53716561    -0.59700
O362        O  0.30961555  0.42340689  0.58429625    -0.49800
O363        O  0.32563934  0.47293516  0.53657837    -0.56100
C364        C  0.31867206  0.43215657  0.44715328     0.83900
O365        O  0.35507628  0.39543497  0.53591296    -0.58000
O366        O  0.34116171  0.43719158  0.62353255    -0.61300
In367      In  0.14735488  0.43467060  0.53640140     1.36900
C368        C  0.14417953  0.48491212  0.53639846     0.76400
O369        O  0.14840103  0.43724277  0.62335943    -0.62100
O370        O  0.17996620  0.42322647  0.58456578    -0.53000
C371        C  0.11199035  0.40062203  0.53604225     0.69100
O372        O  0.10717700  0.42345345  0.53767250    -0.47800
C373        C  0.17138194  0.43217582  0.44723727     0.73800
O374        O  0.12509386  0.47133508  0.53571320    -0.59700
O375        O  0.18015479  0.42353452  0.48848063    -0.49800
O376        O  0.16412043  0.47288894  0.53702195    -0.56100
C377        C  0.17113187  0.43177478  0.62584508     0.83900
O378        O  0.13468597  0.39533563  0.53452576    -0.58000
O379        O  0.14862596  0.43759017  0.44956116    -0.61300
In380      In  0.05886026  0.34609609  0.53627419     1.36900
C381        C  0.00861482  0.34933935  0.53593078     0.76400
O382        O  0.05613951  0.34465528  0.44942506    -0.62100
O383        O  0.06996581  0.31314826  0.48873513    -0.53000
C384        C  0.09287920  0.38148981  0.53601105     0.69100
O385        O  0.07003972  0.38627416  0.53768189    -0.47800
C386        C  0.06166159  0.32244871  0.62586069     0.73800
O387        O  0.02221952  0.36839449  0.53470548    -0.59700
O388        O  0.07029507  0.31358114  0.58469011    -0.49800
O389        O  0.02061174  0.32939376  0.53720273    -0.56100
C390        C  0.06146816  0.32187892  0.44732853     0.83900
O391        O  0.09819182  0.35880508  0.53440061    -0.58000
O392        O  0.05617329  0.34516753  0.62323095    -0.61300
In393      In  0.39731649  0.31290374  0.03676471     1.36900
C394        C  0.39403613  0.26268512  0.03640440     0.76400
O395        O  0.39853052  0.31045706  0.94982448    -0.62100
O396        O  0.43010386  0.32423254  0.98896619    -0.53000
C397        C  0.36191489  0.34684926  0.03694848     0.69100
O398        O  0.35713355  0.32400280  0.03634335    -0.47800
C399        C  0.42110570  0.31542251  0.12619703     0.73800
O400        O  0.37498087  0.27629816  0.03619850    -0.59700
O401        O  0.42996244  0.32409589  0.08505797    -0.49800
O402        O  0.41400876  0.27466257  0.03676326    -0.56100
C403        C  0.42129406  0.31581464  0.94755186     0.83900
O404        O  0.38460531  0.35220845  0.03751873    -0.58000
O405        O  0.39835728  0.31000721  0.12364927    -0.61300
In406      In  0.30873364  0.40122229  0.03684836     1.36900
C407        C  0.25847890  0.39807542  0.03733240     0.76400
O408        O  0.30627580  0.40257482  0.12374438    -0.62100
O409        O  0.32000578  0.43409989  0.08434712    -0.53000
C410        C  0.34277152  0.36591945  0.03694346     0.69100
O411        O  0.31993163  0.36106814  0.03625179    -0.47800
C412        C  0.31150251  0.42481903  0.94725829     0.73800
O413        O  0.27204918  0.37899385  0.03829031    -0.59700
O414        O  0.32014741  0.43370049  0.98840351    -0.49800
O415        O  0.27051366  0.41800535  0.03622872    -0.56100
C416        C  0.31164185  0.42534025  0.12584589     0.83900
O417        O  0.34806209  0.38861710  0.03759030    -0.58000
O418        O  0.30598030  0.40210463  0.94991421    -0.61300
In419      In  0.30898386  0.09614572  0.03638555     1.36900
C420        C  0.25875058  0.09938885  0.03608420     0.76400
O421        O  0.30632561  0.09479153  0.94952774    -0.62100
O422        O  0.32015825  0.06326113  0.98874457    -0.53000
C423        C  0.34281033  0.13163490  0.03606303     0.69100
O424        O  0.31995858  0.13633680  0.03777158    -0.47800
C425        C  0.31190715  0.07253481  0.12598128     0.73800
O426        O  0.27236066  0.11843566  0.03490403    -0.59700
O427        O  0.32047885  0.06364746  0.08477332    -0.49800
O428        O  0.27073804  0.07943376  0.03730236    -0.56100
C429        C  0.31167462  0.07202399  0.94735457     0.83900
O430        O  0.34823560  0.10897613  0.03448380    -0.58000
O431        O  0.30642937  0.09525429  0.12335662    -0.61300
In432      In  0.39704128  0.18492390  0.03626465     1.36900
C433        C  0.39397039  0.23515123  0.03629914     0.76400
O434        O  0.39804287  0.18738657  0.12322928    -0.62100
O435        O  0.42961848  0.17342779  0.08435243    -0.53000
C436        C  0.36181952  0.15082842  0.03600788     0.69100
O437        O  0.35691139  0.17364222  0.03762480    -0.47800
C438        C  0.42098149  0.18231990  0.94707738     0.73800
O439        O  0.37485195  0.22161968  0.03552405    -0.59700
O440        O  0.42977463  0.17372504  0.98834040    -0.49800
O441        O  0.41388867  0.22309019  0.03699118    -0.56100
C442        C  0.42077058  0.18189609  0.12568843     0.83900
O443        O  0.38452338  0.14560349  0.03442257    -0.58000
O444        O  0.39823260  0.18776750  0.94941709    -0.61300
In445      In  0.09231803  0.31253697  0.03696031     1.36900
C446        C  0.09537668  0.26228678  0.03690727     0.76400
O447        O  0.09109945  0.30955776  0.12379418    -0.62100
O448        O  0.05958650  0.32372988  0.08498980    -0.53000
C449        C  0.12764048  0.34663729  0.03728237     0.69100
O450        O  0.13248900  0.32381118  0.03561071    -0.47800
C451        C  0.06853331  0.31547852  0.94753592     0.73800
O452        O  0.11449473  0.27582186  0.03762388    -0.59700
O453        O  0.05970693  0.32400511  0.98884418    -0.49800
O454        O  0.07546214  0.27435456  0.03627681    -0.56100
C455        C  0.06835994  0.31503694  0.12618665     0.83900
O456        O  0.10493776  0.35188438  0.03885503    -0.58000
O457        O  0.09126005  0.30998723  0.94999956    -0.61300
In458      In  0.18068491  0.40127058  0.03708536     1.36900
C459        C  0.23093268  0.39808329  0.03738550     0.76400
O460        O  0.18340392  0.40222677  0.95013489    -0.62100
O461        O  0.16925386  0.43380157  0.98866843    -0.53000
C462        C  0.14671720  0.36581035  0.03730993     0.69100
O463        O  0.16956486  0.36107195  0.03559815    -0.47800
C464        C  0.17813348  0.42543276  0.12610558     0.73800
O465        O  0.21734634  0.37901446  0.03862097    -0.59700
O466        O  0.16953714  0.43416179  0.08478236    -0.49800
O467        O  0.21891487  0.41801720  0.03612165    -0.56100
C468        C  0.17791267  0.42494423  0.94750715     0.83900
O469        O  0.14136508  0.38848683  0.03896968    -0.58000
O470        O  0.18351287  0.40267122  0.12391977    -0.61300
In471      In  0.09206263  0.18449487  0.03645267     1.36900
C472        C  0.09531170  0.23474351  0.03680126     0.76400
O473        O  0.09099143  0.18738057  0.94956773    -0.62100
O474        O  0.05941786  0.17323819  0.98817536    -0.53000
C475        C  0.12759850  0.15063088  0.03635936     0.69100
O476        O  0.13229751  0.17349340  0.03704962    -0.47800
C477        C  0.06802478  0.18153069  0.12562097     0.73800
O478        O  0.11436687  0.22113231  0.03693923    -0.59700
O479        O  0.05923975  0.17312954  0.08417099    -0.49800
O480        O  0.07534664  0.22275251  0.03651091    -0.56100
C481        C  0.06825034  0.18193257  0.94703500     0.83900
O482        O  0.10492187  0.14521177  0.03563617    -0.58000
O483        O  0.09078701  0.18689732  0.12339694    -0.61300
In484      In  0.18096413  0.09635862  0.03658992     1.36900
C485        C  0.23120961  0.09945017  0.03612488     0.76400
O486        O  0.18384596  0.09542824  0.12350694    -0.62100
O487        O  0.16959538  0.06386099  0.08504779    -0.53000
C488        C  0.14681262  0.13160761  0.03643760     0.69100
O489        O  0.16964350  0.13651270  0.03718979    -0.47800
C490        C  0.17817975  0.07221496  0.94759135     0.73800
O491        O  0.21766921  0.11855804  0.03521065    -0.59700
O492        O  0.16971883  0.06348239  0.98903243    -0.49800
O493        O  0.21914951  0.07953756  0.03717304    -0.56100
C494        C  0.17831397  0.07271472  0.12615342     0.83900
O495        O  0.14159402  0.10889311  0.03578848    -0.58000
O496        O  0.18357856  0.09497400  0.94971313    -0.61300
C497        C  0.05050804  0.19181650  0.66652052     0.85300
C498        C  0.05534635  0.21992076  0.65871044    -0.54900
C499        C  0.04167809  0.23483887  0.69056500     0.08200
C500        C  0.02483139  0.21960685  0.72646904     0.19200
C501        C  0.05563853  0.18687353  0.72467975    -0.55700
C502        C  0.04187295  0.20182128  0.75705979     0.08300
C503        C  0.02239503  0.18892096  0.66084855    -0.55200
C504        C  0.00861562  0.20343740  0.69203032     0.08900
H505        H  0.06802211  0.22713886  0.62994733     0.13400
H506        H  0.01342382  0.23080539  0.74922825    -0.00900
H507        H  0.06840014  0.17282739  0.73841353     0.13700
H508        H  0.01430331  0.17605447  0.63370661     0.13500
C509        C  0.05071457  0.30593346  0.66676568     0.85300
C510        C  0.02260485  0.30895499  0.66120352    -0.54900
C511        C  0.00877519  0.29446786  0.69232234     0.08200
C512        C  0.02494602  0.27821146  0.72665962     0.19200
C513        C  0.05589688  0.31082985  0.72494409    -0.55700
C514        C  0.04207781  0.29591785  0.75730545     0.08300
C515        C  0.05543199  0.27781497  0.65886276    -0.55200
C516        C  0.04172197  0.26293395  0.69065361     0.08900
H517        H  0.01454454  0.32189903  0.63421533     0.13400
H518        H  0.01349522  0.26704092  0.74937762    -0.00900
H519        H  0.06872681  0.32481460  0.73870575     0.13700
H520        H  0.06806829  0.27055292  0.63006309     0.13500
C521        C  0.43899804  0.30612015  0.66690070     0.85300
C522        C  0.43417113  0.27801875  0.65903191    -0.54900
C523        C  0.44784807  0.26309631  0.69077967     0.08200
C524        C  0.46469478  0.27832135  0.72673807     0.19200
C525        C  0.43386337  0.31105007  0.72507643    -0.55700
C526        C  0.44764395  0.29609807  0.75740626     0.08300
C527        C  0.46711573  0.30904181  0.66124606    -0.55200
C528        C  0.48090818  0.29451529  0.69234981     0.08900
H529        H  0.42149495  0.27079520  0.63027080     0.13400
H530        H  0.47611497  0.26711516  0.74943668    -0.00900
H531        H  0.42109418  0.32508536  0.73885810     0.13700
H532        H  0.47520688  0.32194394  0.63420216     0.13500
C533        C  0.43882412  0.19200750  0.66664861     0.85300
C534        C  0.46692246  0.18901441  0.66094105    -0.54900
C535        C  0.48075924  0.20348560  0.69207846     0.08200
C536        C  0.46460823  0.21971869  0.72653697     0.19200
C537        C  0.43367557  0.18709478  0.72480626    -0.55700
C538        C  0.44749272  0.20200784  0.75715201     0.08300
C539        C  0.43408153  0.22012745  0.65882263    -0.55200
C540        C  0.44780704  0.23500310  0.69065872     0.08900
H541        H  0.47496590  0.17612145  0.63378681     0.13400
H542        H  0.47606315  0.23087845  0.74927527    -0.00900
H543        H  0.42085432  0.17310424  0.73856325     0.13700
H544        H  0.42142098  0.22738309  0.63008048     0.13500
C545        C  0.43784627  0.30489731  0.90668340     0.85300
C546        C  0.46597313  0.30961617  0.91451039    -0.54900
C547        C  0.48083624  0.29590129  0.88264830     0.08200
C548        C  0.46553477  0.27913335  0.84669472     0.19200
C549        C  0.43291917  0.31007084  0.84852625    -0.55700
C550        C  0.44781347  0.29625288  0.81612106     0.08300
C551        C  0.43483007  0.27679691  0.91227096    -0.55200
C552        C  0.44929318  0.26297239  0.88107926     0.08900
H553        H  0.47324673  0.32224727  0.94330553     0.13400
H554        H  0.47669372  0.26769049  0.82393544    -0.00900
H555        H  0.41892055  0.32289021  0.83481202     0.13700
H556        H  0.42191387  0.26874219  0.93934642     0.13500
C557        C  0.43757920  0.19322674  0.90632405     0.85300
C558        C  0.43469043  0.22133049  0.91208698    -0.54900
C559        C  0.44922130  0.23511939  0.88097774     0.08200
C560        C  0.46539665  0.21891741  0.84650094     0.19200
C561        C  0.43264034  0.18811766  0.84815792    -0.55700
C562        C  0.44761076  0.20188364  0.81584430     0.08300
C563        C  0.46568358  0.18837250  0.91414218    -0.55200
C564        C  0.48061598  0.20204715  0.88236839     0.08900
H565        H  0.42182632  0.22941028  0.93925484     0.13400
H566        H  0.47660778  0.23033328  0.82379063    -0.00900
H567        H  0.41859936  0.17535475  0.83437252     0.13700
H568        H  0.47289516  0.17567494  0.94285490     0.13500
C569        C  0.05170755  0.19293472  0.90625842     0.85300
C570        C  0.02357846  0.18822114  0.91409274    -0.54900
C571        C  0.00871329  0.20197009  0.88233491     0.08200
C572        C  0.02401378  0.21876405  0.84644279     0.19200
C573        C  0.05661742  0.18780709  0.84807677    -0.55700
C574        C  0.04172162  0.20165405  0.81576602     0.08300
C575        C  0.05473393  0.22103157  0.91199983    -0.55200
C576        C  0.04026834  0.23489185  0.88089742     0.08900
H577        H  0.01630189  0.17556661  0.94282314     0.13400
H578        H  0.01285618  0.23023222  0.82374020    -0.00900
H579        H  0.07060026  0.17498458  0.83427836     0.13700
H580        H  0.06764938  0.22905551  0.93912262     0.13500
C581        C  0.05196966  0.30462474  0.90660408     0.85300
C582        C  0.05486947  0.27650909  0.91214339    -0.54900
C583        C  0.04033106  0.26275068  0.88097985     0.08200
C584        C  0.02415107  0.27899181  0.84663099     0.19200
C585        C  0.05690591  0.30979372  0.84843797    -0.55700
C586        C  0.04194033  0.29604661  0.81603507     0.08300
C587        C  0.02386630  0.30946292  0.91446517    -0.55200
C588        C  0.00893409  0.29582526  0.88262363     0.08900
H589        H  0.06777149  0.26839154  0.93915246     0.13400
H590        H  0.01293540  0.26759737  0.82388103    -0.00900
H591        H  0.07095211  0.32256297  0.83471512     0.13700
H592        H  0.01665202  0.32212519  0.94326721     0.13500
C593        C  0.18798621  0.55480890  0.40679634     0.85300
C594        C  0.21610455  0.55958166  0.41465321    -0.54900
C595        C  0.23100264  0.54590704  0.38277732     0.08200
C596        C  0.21574159  0.52911308  0.34680588     0.19200
C597        C  0.18306751  0.55999211  0.34863945    -0.55700
C598        C  0.19800197  0.54621832  0.31623209     0.08300
C599        C  0.18502337  0.52670432  0.41235190    -0.55200
C600        C  0.19952584  0.51291384  0.38118402     0.08900
H601        H  0.22334629  0.57222512  0.44345956     0.13400
H602        H  0.22692139  0.51769603  0.32405052    -0.00900
H603        H  0.16905700  0.57279853  0.33492518     0.13700
H604        H  0.17211821  0.51861833  0.43941024     0.13500
C605        C  0.30211297  0.55480121  0.40670920     0.85300
C606        C  0.30507266  0.52669295  0.41226518    -0.54900
C607        C  0.29057215  0.51290142  0.38109356     0.09800
C608        C  0.27436045  0.52910477  0.34673469     0.19200
C609        C  0.30705497  0.55997592  0.34855816    -0.55700
C610        C  0.29212774  0.54619344  0.31615311     0.08300
C611        C  0.27399981  0.55958191  0.41455515    -0.55200
C612        C  0.25910128  0.54590582  0.38272311     0.08900
H613        H  0.31798679  0.51860519  0.43928698     0.13400
H614        H  0.26317326  0.51768818  0.32399735    -0.00900
H615        H  0.32108392  0.57276714  0.33484602     0.13700
H616        H  0.26675476  0.57222849  0.44335349     0.13500
C617        C  0.30211523  0.94311814  0.40636998     0.85300
C618        C  0.27399764  0.93834488  0.41424251    -0.54900
C619        C  0.25909336  0.95205541  0.38249928     0.08200
C620        C  0.27434709  0.96887881  0.34658502     0.19200
C621        C  0.30701772  0.93798921  0.34818818    -0.55700
C622        C  0.29207608  0.95179764  0.31589546     0.08300
C623        C  0.30508899  0.97122037  0.41208673    -0.55200
C624        C  0.29057955  0.98504448  0.38100649     0.08900
H625        H  0.26675493  0.92567327  0.44297742     0.13400
H626        H  0.26316467  0.98031903  0.32390811    -0.00900
H627        H  0.32101919  0.92518998  0.33437687     0.13700
H628        H  0.31800138  0.97927478  0.43917738     0.13500
C629        C  0.18797932  0.94313592  0.40650892     0.85300
C630        C  0.18503543  0.97123657  0.41227980    -0.54900
C631        C  0.19953026  0.98505979  0.38114832     0.08200
C632        C  0.21573691  0.96889572  0.34667185     0.19200
C633        C  0.18304803  0.93803040  0.34833135    -0.55700
C634        C  0.19797670  0.95184152  0.31601337     0.08300
C635        C  0.21609534  0.93834494  0.41431890    -0.55200
C636        C  0.23099528  0.95205641  0.38253752     0.08900
H637        H  0.17215372  0.97928692  0.43944647     0.13400
H638        H  0.22691522  0.98033107  0.32396137    -0.00900
H639        H  0.16902267  0.92525168  0.33454215     0.13700
H640        H  0.22333679  0.92566682  0.44303665     0.13500
C641        C  0.30078925  0.94194522  0.16665687     0.85300
C642        C  0.30561578  0.97004863  0.15885144    -0.54900
C643        C  0.29194779  0.98495530  0.19072051     0.08200
C644        C  0.27511123  0.96971477  0.22662936     0.19200
C645        C  0.30594475  0.93699993  0.22480031    -0.55700
C646        C  0.29218247  0.95194251  0.25719561     0.08300
C647        C  0.27267931  0.93903092  0.16101197    -0.55200
C648        C  0.25889725  0.95353538  0.19218974     0.08900
H649        H  0.31828715  0.97727369  0.13008721     0.13400
H650        H  0.26370182  0.98090252  0.24938499    -0.00900
H651        H  0.31872659  0.92296728  0.23851348     0.13700
H652        H  0.26458626  0.92616036  0.13387910     0.13500
C653        C  0.18910023  0.94204990  0.16680262     0.85300
C654        C  0.21720410  0.93908526  0.16104751    -0.54900
C655        C  0.23103977  0.95356130  0.19220678     0.08200
C656        C  0.21488514  0.96977192  0.22669166     0.19200
C657        C  0.18398406  0.93712001  0.22496750    -0.55700
C658        C  0.19780533  0.95202682  0.25731372     0.08300
C659        C  0.18433861  0.97016708  0.15900166    -0.55200
C660        C  0.19806777  0.98504920  0.19081832     0.08900
H661        H  0.22524625  0.92620838  0.13385956     0.13400
H662        H  0.22632990  0.98093501  0.24942731    -0.00900
H663        H  0.17118959  0.92310649  0.23872999     0.13700
H664        H  0.17167524  0.97741906  0.13026117     0.13500
C665        C  0.18924724  0.55617105  0.16700486     0.85300
C666        C  0.18444313  0.52806417  0.15911176    -0.54900
C667        C  0.19812025  0.51314447  0.19087411     0.08200
C668        C  0.21495577  0.52837549  0.22683621     0.19200
C669        C  0.18409887  0.56107755  0.22518814    -0.55700
C670        C  0.19787998  0.54612128  0.25751249     0.08300
C671        C  0.21736181  0.55911539  0.16136613    -0.55200
C672        C  0.23116029  0.54459015  0.19246044     0.08900
H673        H  0.17176939  0.52083657  0.13035060     0.13400
H674        H  0.22637752  0.51717891  0.24952636    -0.00900
H675        H  0.17130625  0.57508926  0.23897869     0.13700
H676        H  0.22544667  0.57202785  0.13433270     0.13500
C677        C  0.30096710  0.55603704  0.16690606     0.85300
C678        C  0.27285519  0.55904140  0.16130657    -0.54900
C679        C  0.25902652  0.54455464  0.19242828     0.08200
C680        C  0.27519722  0.52831660  0.22679105     0.19200
C681        C  0.30612766  0.56095601  0.22508234    -0.55700
C682        C  0.29230331  0.54604403  0.25743521     0.08300
C683        C  0.30570636  0.52792345  0.15904272    -0.55200
C684        C  0.29199131  0.51304478  0.19082025     0.08900
H685        H  0.26479227  0.57197605  0.13430334     0.13400
H686        H  0.26375387  0.51714529  0.24948826    -0.00900
H687        H  0.31894080  0.57495575  0.23884657     0.13700
H688        H  0.31835610  0.52066254  0.13026733     0.13500
C689        C  0.43861568  0.69135774  0.40644858     0.85300
C690        C  0.43389655  0.71947558  0.41435492    -0.54900
C691        C  0.44760524  0.73435591  0.38256388     0.08200
C692        C  0.46438014  0.71907909  0.34656026     0.19200
C693        C  0.43342487  0.68646228  0.34827501    -0.55700
C694        C  0.44724100  0.70137994  0.31591751     0.08300
C695        C  0.46672360  0.68833199  0.41200037    -0.55200
C696        C  0.48055133  0.70281731  0.38088934     0.08900
H697        H  0.42125813  0.72673700  0.44315153     0.13400
H698        H  0.47582991  0.73024792  0.32385408    -0.00900
H699        H  0.42058969  0.67248175  0.33451469     0.13700
H700        H  0.47478712  0.67538563  0.43898044     0.13500
C701        C  0.43882811  0.80546805  0.40670537     0.85300
C702        C  0.46694140  0.80835457  0.41238717    -0.54900
C703        C  0.48071878  0.79384100  0.38120639     0.08200
C704        C  0.46449863  0.77768229  0.34674843     0.19200
C705        C  0.43369776  0.81042548  0.34855950    -0.55700
C706        C  0.44745908  0.79548117  0.31617257     0.08300
C707        C  0.43397836  0.77736585  0.41449961    -0.55200
C708        C  0.44764618  0.76244936  0.38264342     0.08900
H709        H  0.47503757  0.82121490  0.43953560     0.13400
H710        H  0.47590377  0.76648593  0.32398885    -0.00900
H711        H  0.42094106  0.82447915  0.33483847     0.13700
H712        H  0.42130026  0.77014824  0.44325936     0.13500
C713        C  0.05033074  0.69114513  0.40628753     0.85300
C714        C  0.02221258  0.68822456  0.41195855    -0.54900
C715        C  0.00841734  0.70276021  0.38086584     0.08200
C716        C  0.02462630  0.71895930  0.34648382     0.19200
C717        C  0.05545324  0.68622848  0.34809775    -0.55700
C718        C  0.04166844  0.70118834  0.31578759     0.08300
C719        C  0.05515744  0.71924586  0.41417484    -0.55200
C720        C  0.04147779  0.73417583  0.38244753     0.08900
H721        H  0.01412605  0.67531917  0.43900322     0.13400
H722        H  0.01320752  0.73016850  0.32380083    -0.00900
H723        H  0.06822021  0.67219644  0.33429321     0.13700
H724        H  0.06783744  0.72646461  0.44293364     0.13500
C725        C  0.05051699  0.80526302  0.40662097     0.85300
C726        C  0.05525199  0.77714060  0.41443558    -0.54900
C727        C  0.04152382  0.76227010  0.38258715     0.08200
C728        C  0.02472499  0.77756127  0.34671201     0.19200
C729        C  0.05566103  0.81017892  0.34846178    -0.55700
C730        C  0.04183978  0.79527675  0.31610526     0.08300
C731        C  0.02241709  0.80825671  0.41233761    -0.55200
C732        C  0.00857652  0.79379042  0.38118203     0.08900
H733        H  0.06790872  0.76987962  0.44317878     0.13400
H734        H  0.01327099  0.76640807  0.32396411    -0.00900
H735        H  0.06848234  0.82417034  0.33471027     0.13700
H736        H  0.01437832  0.82114599  0.43950491     0.13500
C737        C  0.43732487  0.69272374  0.16663738     0.85300
C738        C  0.46542684  0.68787885  0.15875921    -0.54900
C739        C  0.48036596  0.70150817  0.19059575     0.08200
C740        C  0.46515477  0.71833692  0.22660840     0.19200
C741        C  0.43238949  0.68754034  0.22479130    -0.55700
C742        C  0.44736447  0.70127461  0.25719517     0.08300
C743        C  0.43442676  0.72083858  0.16112278    -0.55200
C744        C  0.44897397  0.73458731  0.19227587     0.08900
H745        H  0.47263595  0.67521888  0.12994710     0.13400
H746        H  0.47637426  0.72972514  0.24935100    -0.00900
H747        H  0.41834231  0.67476981  0.23850627     0.13700
H748        H  0.42152178  0.72896432  0.13413017     0.13500
C749        C  0.43762757  0.80440660  0.16698851     0.85300
C750        C  0.43459041  0.77631161  0.16123587    -0.54900
C751        C  0.44905158  0.76244435  0.19233786     0.08200
C752        C  0.46531333  0.77856228  0.22678933     0.19200
C753        C  0.43271585  0.80952641  0.22517331    -0.55700
C754        C  0.44760925  0.79566850  0.25747301     0.08300
C755        C  0.46575651  0.80911470  0.15916380    -0.55200
C756        C  0.48061685  0.79535853  0.19090927     0.08900
H757        H  0.42166811  0.76829595  0.13411720     0.13400
H758        H  0.47646766  0.76709060  0.24947540    -0.00900
H759        H  0.41873412  0.82234815  0.23898002     0.13700
H760        H  0.47303750  0.82177435  0.13044841     0.13500
C761        C  0.05175104  0.80410553  0.16692373     0.85300
C762        C  0.02364703  0.80896205  0.15911080    -0.54900
C763        C  0.00871286  0.79528214  0.19087679     0.08200
C764        C  0.02392758  0.77840311  0.22673311     0.19200
C765        C  0.05668621  0.80919776  0.22510354    -0.55700
C766        C  0.04171575  0.79542390  0.25740707     0.08300
C767        C  0.05463299  0.77599985  0.16113836    -0.55200
C768        C  0.04009860  0.76220595  0.19224378     0.08900
H769        H  0.01643690  0.82166389  0.13040516     0.13400
H770        H  0.01271732  0.76698723  0.24943598    -0.00900
H771        H  0.07072894  0.82195460  0.23890485     0.13700
H772        H  0.06749523  0.76792408  0.13396250     0.13500
C773        C  0.05145484  0.69243010  0.16648836     0.85300
C774        C  0.05447464  0.72053082  0.16093220    -0.54900
C775        C  0.04001685  0.73435163  0.19213510     0.08200
C776        C  0.02377273  0.71818553  0.22651400     0.19200
C777        C  0.05637975  0.68723966  0.22464083    -0.55700
C778        C  0.04149107  0.70105158  0.25706728     0.08300
C779        C  0.02332538  0.68771941  0.15865575    -0.55200
C780        C  0.00846525  0.70142824  0.19054566     0.08900
H781        H  0.06739149  0.72859126  0.13386669     0.13400
H782        H  0.01262016  0.72962509  0.24928895    -0.00900
H783        H  0.07037557  0.67441310  0.23833820     0.13700
H784        H  0.01604947  0.67509828  0.12984403     0.13500
C785        C  0.18767966  0.94267449  0.66675382     0.85300
C786        C  0.21579303  0.93789635  0.65888967    -0.54900
C787        C  0.23069741  0.95157488  0.69071165     0.08200
C788        C  0.21544370  0.96837796  0.72671073     0.19200
C789        C  0.18275112  0.93750862  0.72492218    -0.55700
C790        C  0.19768123  0.95129646  0.75731774     0.08300
C791        C  0.18472239  0.97078394  0.66119021    -0.55200
C792        C  0.19922769  0.98457862  0.69235585     0.08900
H793        H  0.22303414  0.92525149  0.63008354     0.13400
H794        H  0.22663222  0.97979490  0.74944628    -0.00900
H795        H  0.16872392  0.92472025  0.73865230     0.13700
H796        H  0.17180685  0.97886906  0.63416693     0.13500
C797        C  0.30181326  0.94268428  0.66659964     0.85300
C798        C  0.30477195  0.97078934  0.66103516    -0.54900
C799        C  0.29027113  0.98457751  0.69221496     0.08200
C800        C  0.27406092  0.96837643  0.72659459     0.19200
C801        C  0.30674050  0.93750407  0.72475002    -0.55700
C802        C  0.29180747  0.95127608  0.75715859     0.08300
C803        C  0.27369426  0.93790685  0.65875434    -0.55200
C804        C  0.25879738  0.95157994  0.69063417     0.08900
H805        H  0.31767441  0.97887544  0.63397130     0.13400
H806        H  0.26288194  0.97979190  0.74934931    -0.00900
H807        H  0.32075585  0.92470170  0.73845910     0.13700
H808        H  0.26645080  0.92526063  0.62995510     0.13500
C809        C  0.18768424  0.55436191  0.66707190     0.85300
C810        C  0.18471351  0.52625935  0.66136273    -0.54900
C811        C  0.19922122  0.51243689  0.69244774     0.08200
C812        C  0.21545349  0.52860527  0.72687117     0.19200
C813        C  0.18278397  0.55949504  0.72525831    -0.55700
C814        C  0.19772703  0.54569016  0.75755950     0.08300
C815        C  0.21580126  0.55913568  0.65920068    -0.55200
C816        C  0.23070567  0.54542873  0.69095313     0.08900
H817        H  0.17180666  0.51820235  0.63426256     0.13400
H818        H  0.22663607  0.51716621  0.74955524    -0.00900
H819        H  0.16878558  0.57229829  0.73906653     0.13700
H820        H  0.22304301  0.57180576  0.63046187     0.13500
C821        C  0.30181265  0.55435438  0.66693835     0.85300
C822        C  0.27369733  0.55914805  0.65914279    -0.54900
C823        C  0.25880241  0.54543261  0.69091995     0.08200
C824        C  0.27406580  0.52859273  0.72677295     0.19200
C825        C  0.30675652  0.55946107  0.72510088    -0.55700
C826        C  0.29183182  0.54565067  0.75741970     0.08300
C827        C  0.30475902  0.52625560  0.66115556    -0.55200
C828        C  0.29026788  0.51243066  0.69228086     0.08900
H829        H  0.26645282  0.57182907  0.63043387     0.13400
H830        H  0.26288822  0.51715500  0.74947753    -0.00900
H831        H  0.32078370  0.57224057  0.73888015     0.13700
H832        H  0.31763884  0.51820653  0.63398387     0.13500
C833        C  0.18886354  0.94146388  0.90660130     0.85300
C834        C  0.18413052  0.96958049  0.91448339    -0.54900
C835        C  0.19783485  0.98446425  0.88268639     0.08200
C836        C  0.21461807  0.96919122  0.84668340     0.19200
C837        C  0.18369141  0.93655227  0.84842134    -0.55700
C838        C  0.19750816  0.95146203  0.81604911     0.08300
C839        C  0.21697753  0.93846151  0.91216731    -0.55200
C840        C  0.23079826  0.95295066  0.88102373     0.08900
H841        H  0.17149341  0.97684020  0.94328420     0.13400
H842        H  0.22605496  0.98036157  0.82396526    -0.00900
H843        H  0.17087882  0.92254998  0.83466711     0.13700
H844        H  0.22504574  0.92552547  0.93916091     0.13500
C845        C  0.30058281  0.94133997  0.90637090     0.85300
C846        C  0.27246979  0.93839302  0.91202488    -0.54900
C847        C  0.25866501  0.95291428  0.88094334     0.08200
C848        C  0.27486328  0.96912580  0.84654787     0.19200
C849        C  0.30572545  0.93642375  0.84819120    -0.55700
C850        C  0.29193762  0.95137697  0.81587128     0.08300
C851        C  0.30539002  0.96944401  0.91424220    -0.55200
C852        C  0.29170522  0.98435763  0.88249178     0.08900
H853        H  0.26438874  0.92548207  0.93906557     0.13400
H854        H  0.26343606  0.98032231  0.82386756    -0.00900
H855        H  0.31851760  0.92241146  0.83440056     0.13700
H856        H  0.31806995  0.97667428  0.94298851     0.13500
C857        C  0.30072613  0.55543508  0.90661229     0.85300
C858        C  0.30548878  0.52731968  0.91438351    -0.54900
C859        C  0.29175306  0.51244751  0.88256867     0.08200
C860        C  0.27492989  0.52772942  0.84672509     0.19200
C861        C  0.30583858  0.56037711  0.84845122    -0.55700
C862        C  0.29200984  0.54547308  0.81610839     0.08300
C863        C  0.27262490  0.55840641  0.91237936    -0.55200
C864        C  0.25878341  0.54394039  0.88122291     0.08900
H865        H  0.31816083  0.52006217  0.94310117     0.13400
H866        H  0.26347932  0.51656854  0.82400289    -0.00900
H867        H  0.31863527  0.57438934  0.83469102     0.13700
H868        H  0.26458684  0.57128260  0.93957331     0.13500
C869        C  0.18904123  0.55558461  0.90681027     0.85300
C870        C  0.21715244  0.55849758  0.91242849    -0.54900
C871        C  0.23092697  0.54398042  0.88125470     0.08200
C872        C  0.21470619  0.52779451  0.84684325     0.19200
C873        C  0.18387698  0.56051073  0.84865994    -0.55700
C874        C  0.19763112  0.54555908  0.81626746     0.08300
C875        C  0.18421920  0.52747824  0.91465531    -0.55200
C876        C  0.19787888  0.51256008  0.88278320     0.08900
H877        H  0.22525046  0.57137481  0.93954123     0.13400
H878        H  0.22611011  0.51660324  0.82408516    -0.00900
H879        H  0.17109396  0.57454043  0.83493915     0.13700
H880        H  0.17155619  0.52025949  0.94344220     0.13500
In881      In  0.14735721  0.56270083  0.53682196     1.36900
C882        C  0.14418490  0.51245383  0.53648754     0.76400
O883        O  0.14863558  0.56028754  0.44987012    -0.62100
O884        O  0.18017352  0.57406050  0.48913356    -0.53000
C885        C  0.11191105  0.59663695  0.53691458     0.69100
O886        O  0.10715039  0.57378450  0.53628432    -0.47800
C887        C  0.17112290  0.56531463  0.62627400     0.73800
O888        O  0.12510188  0.52603015  0.53632218    -0.59700
O889        O  0.17995117  0.57401776  0.58513808    -0.49800
O890        O  0.16412949  0.52447861  0.53679477    -0.56100
C891        C  0.17139566  0.56567219  0.44766549     0.83900
O892        O  0.13459875  0.60200275  0.53754677    -0.58000
O893        O  0.14839524  0.55981063  0.62371223    -0.61300
In894      In  0.05866976  0.65101268  0.53676019     1.36900
C895        C  0.00843872  0.64790390  0.53723807     0.76400
O896        O  0.05601673  0.65242420  0.62363781    -0.62100
O897        O  0.06987513  0.68391459  0.58432301    -0.53000
C898        C  0.09275125  0.61570786  0.53687945     0.69100
O899        O  0.06991219  0.61085138  0.53618442    -0.47800
C900        C  0.06127747  0.67460345  0.44713149     0.73800
O901        O  0.02198229  0.62879949  0.53820437    -0.59700
O902        O  0.07007479  0.68345786  0.48816692    -0.49800
O903        O  0.02049180  0.66782038  0.53612744    -0.56100
C904        C  0.06139462  0.67518706  0.62575427     0.83900
O905        O  0.09802356  0.63841200  0.53751581    -0.58000
O906        O  0.05570220  0.65190419  0.44985810    -0.61300
In907      In  0.43066393  0.65123045  0.53695364     1.36900
C908        C  0.48089984  0.64796211  0.53728522     0.76400
O909        O  0.43316717  0.65212734  0.44996733    -0.62100
O910        O  0.41917663  0.68373827  0.48862841    -0.53000
C911        C  0.39675474  0.61583244  0.53729102     0.69100
O912        O  0.41959417  0.61106127  0.53558943    -0.47800
C913        C  0.42790473  0.67540202  0.62591020     0.73800
O914        O  0.46728567  0.62891782  0.53847739    -0.59700
O915        O  0.41950023  0.68415352  0.58444496    -0.49800
O916        O  0.46891721  0.66791842  0.53605087    -0.56100
C917        C  0.42769861  0.67485190  0.44738022     0.83900
O918        O  0.39139436  0.63850374  0.53886301    -0.58000
O919        O  0.43323024  0.65262509  0.62382698    -0.61300
In920      In  0.34237796  0.56270532  0.53706112     1.36900
C921        C  0.34557191  0.51249077  0.53705968     0.76400
O922        O  0.34115461  0.55990679  0.62390530    -0.62100
O923        O  0.30959773  0.57387063  0.58492083    -0.53000
C924        C  0.37768500  0.59670456  0.53733849     0.69100
O925        O  0.38252711  0.57388006  0.53574401    -0.47800
C926        C  0.31864259  0.56568470  0.44763523     0.73800
O927        O  0.36465301  0.52606944  0.53779360    -0.59700
O928        O  0.30978386  0.57416647  0.48894771    -0.49800
O929        O  0.32562233  0.52449988  0.53640371    -0.56100
C930        C  0.31839377  0.56530244  0.62620449     0.83900
O931        O  0.35499450  0.60199829  0.53888793    -0.58000
O932        O  0.34137740  0.56023260  0.45010647    -0.61300
In933      In  0.43082661  0.84625358  0.53644256     1.36900
C934        C  0.48107158  0.84937111  0.53597182     0.76400
O935        O  0.43364709  0.84535933  0.62335686    -0.62100
O936        O  0.41936663  0.81379682  0.58493235    -0.53000
C937        C  0.39687142  0.88163958  0.53639533     0.69100
O938        O  0.41972137  0.88643541  0.53705291    -0.47800
C939        C  0.42796314  0.82209555  0.44747330     0.73800
O940        O  0.46751678  0.86846287  0.53498158    -0.59700
O941        O  0.41954584  0.81336346  0.48895078    -0.49800
O942        O  0.46902451  0.82944962  0.53710067    -0.56100
C943        C  0.42808045  0.82265717  0.62603491     0.83900
O944        O  0.39152600  0.85895365  0.53573383    -0.58000
O945        O  0.43334372  0.84485770  0.44955581    -0.61300
In946      In  0.34241978  0.93474176  0.53659526     1.36900
C947        C  0.34558238  0.98496041  0.53695114     0.76400
O948        O  0.34140098  0.93765604  0.44971927    -0.62100
O949        O  0.30983720  0.92344410  0.48827457    -0.53000
C950        C  0.37777394  0.90075434  0.53643355     0.69100
O951        O  0.38259775  0.92359459  0.53701615    -0.47800
C952        C  0.31839977  0.93181236  0.62574354     0.73800
O953        O  0.36467551  0.97139691  0.53716569    -0.59700
O954        O  0.30961557  0.92340690  0.58429625    -0.49800
O955        O  0.32563935  0.97293522  0.53657845    -0.56100
C956        C  0.31867205  0.93215665  0.44715347     0.83900
O957        O  0.35507628  0.89543498  0.53591296    -0.58000
O958        O  0.34116171  0.93719159  0.62353258    -0.61300
In959      In  0.14735487  0.93467065  0.53640148     1.36900
C960        C  0.14417946  0.98491222  0.53639862     0.76400
O961        O  0.14840102  0.93724276  0.62335952    -0.62100
O962        O  0.17996623  0.92322661  0.58456580    -0.53000
C963        C  0.11199032  0.90062207  0.53604224     0.69100
O964        O  0.10717701  0.92345349  0.53767250    -0.47800
C965        C  0.17138197  0.93217590  0.44723741     0.73800
O966        O  0.12509380  0.97133518  0.53571353    -0.59700
O967        O  0.18015485  0.92353465  0.48848078    -0.49800
O968        O  0.16412034  0.97288901  0.53702191    -0.56100
C969        C  0.17113187  0.93177481  0.62584516     0.83900
O970        O  0.13468594  0.89533565  0.53452577    -0.58000
O971        O  0.14862597  0.93759019  0.44956133    -0.61300
In972      In  0.05886027  0.84609608  0.53627414     1.36900
C973        C  0.00861484  0.84933932  0.53593079     0.76400
O974        O  0.05613951  0.84465520  0.44942500    -0.62100
O975        O  0.06996585  0.81314821  0.48873509    -0.53000
C976        C  0.09287914  0.88148985  0.53601096     0.69100
O977        O  0.07003965  0.88627418  0.53768155    -0.47800
C978        C  0.06166161  0.82244870  0.62586068     0.73800
O979        O  0.02221953  0.86839447  0.53470547    -0.59700
O980        O  0.07029510  0.81358115  0.58469009    -0.49800
O981        O  0.02061176  0.82939374  0.53720273    -0.56100
C982        C  0.06146818  0.82187885  0.44732848     0.83900
O983        O  0.09819180  0.85880512  0.53440066    -0.58000
O984        O  0.05617332  0.84516753  0.62323096    -0.61300
In985      In  0.39731652  0.81290374  0.03676471     1.36900
C986        C  0.39403614  0.76268511  0.03640440     0.76400
O987        O  0.39853054  0.81045707  0.94982448    -0.62100
O988        O  0.43010388  0.82423255  0.98896618    -0.53000
C989        C  0.36191493  0.84684926  0.03694848     0.69100
O990        O  0.35713358  0.82400281  0.03634335    -0.47800
C991        C  0.42110577  0.81542252  0.12619699     0.73800
O992        O  0.37498089  0.77629816  0.03619850    -0.59700
O993        O  0.42996249  0.82409591  0.08505793    -0.49800
O994        O  0.41400877  0.77466256  0.03676326    -0.56100
C995        C  0.42129408  0.81581464  0.94755185     0.83900
O996        O  0.38460536  0.85220845  0.03751872    -0.58000
O997        O  0.39835734  0.81000722  0.12364927    -0.61300
In998      In  0.30873377  0.90122230  0.03684850     1.36900
C999        C  0.25847904  0.89807534  0.03733249     0.76400
O1000       O  0.30627587  0.90257482  0.12374460    -0.62100
O1001       O  0.32000585  0.93409988  0.08434738    -0.53000
C1002       C  0.34277159  0.86591946  0.03694354     0.69100
O1003       O  0.31993170  0.86106815  0.03625211    -0.47800
C1004       C  0.31150253  0.92481902  0.94725845     0.73800
O1005       O  0.27204933  0.87899378  0.03829033    -0.59700
O1006       O  0.32014748  0.93370053  0.98840360    -0.49800
O1007       O  0.27051380  0.91800526  0.03622875    -0.56100
C1008       C  0.31164192  0.92534025  0.12584612     0.83900
O1009       O  0.34806219  0.88861710  0.03759024    -0.58000
O1010       O  0.30598032  0.90210463  0.94991446    -0.61300
In1011     In  0.30898378  0.59614575  0.03638552     1.36900
C1012       C  0.25875050  0.59938891  0.03608419     0.76400
O1013       O  0.30632562  0.59479154  0.94952768    -0.62100
O1014       O  0.32015824  0.56326115  0.98874449    -0.53000
C1015       C  0.34281031  0.63163491  0.03606305     0.69100
O1016       O  0.31995857  0.63633680  0.03777158    -0.47800
C1017       C  0.31190715  0.57253481  0.12598123     0.73800
O1018       O  0.27236055  0.61843575  0.03490404    -0.59700
O1019       O  0.32047885  0.56364748  0.08477326    -0.49800
O1020       O  0.27073799  0.57943383  0.03730235    -0.56100
C1021       C  0.31167466  0.57202401  0.94735445     0.83900
O1022       O  0.34823557  0.60897613  0.03448380    -0.58000
O1023       O  0.30642938  0.59525430  0.12335661    -0.61300
In1024     In  0.39704131  0.68492387  0.03626463     1.36900
C1025       C  0.39397040  0.73515121  0.03629914     0.76400
O1026       O  0.39804290  0.68738647  0.12322912    -0.62100
O1027       O  0.42961853  0.67342765  0.08435239    -0.53000
C1028       C  0.36181950  0.65082843  0.03600797     0.69100
O1029       O  0.35691138  0.67364223  0.03762512    -0.47800
C1030       C  0.42098151  0.68231991  0.94707739     0.73800
O1031       O  0.37485198  0.72161962  0.03552405    -0.59700
O1032       O  0.42977465  0.67372505  0.98834040    -0.49800
O1033       O  0.41388869  0.72309018  0.03699120    -0.56100
C1034       C  0.42077061  0.68189602  0.12568833     0.83900
O1035       O  0.38452334  0.64560349  0.03442249    -0.58000
O1036       O  0.39823261  0.68776750  0.94941709    -0.61300
In1037     In  0.09231806  0.81253697  0.03696030     1.36900
C1038       C  0.09537669  0.76228678  0.03690727     0.76400
O1039       O  0.09109942  0.80955773  0.12379415    -0.62100
O1040       O  0.05958649  0.82372986  0.08498969    -0.53000
C1041       C  0.12764050  0.84663730  0.03728246     0.69100
O1042       O  0.13248903  0.82381119  0.03561072    -0.47800
C1043       C  0.06853333  0.81547855  0.94753591     0.73800
O1044       O  0.11449474  0.77582186  0.03762388    -0.59700
O1045       O  0.05970695  0.82400512  0.98884419    -0.49800
O1046       O  0.07546215  0.77435458  0.03627681    -0.56100
C1047       C  0.06835990  0.81503688  0.12618653     0.83900
O1048       O  0.10493779  0.85188439  0.03885504    -0.58000
O1049       O  0.09126007  0.80998724  0.94999956    -0.61300
In1050     In  0.18068498  0.90127055  0.03708551     1.36900
C1051       C  0.23093281  0.89808317  0.03738571     0.76400
O1052       O  0.18340397  0.90222668  0.95013504    -0.62100
O1053       O  0.16925386  0.93380148  0.98866847    -0.53000
C1054       C  0.14671722  0.86581036  0.03731015     0.69100
O1055       O  0.16956488  0.86107196  0.03559817    -0.47800
C1056       C  0.17813355  0.92543277  0.12610576     0.73800
O1057       O  0.21734647  0.87901435  0.03862137    -0.59700
O1058       O  0.16953731  0.93416180  0.08478250    -0.49800
O1059       O  0.21891499  0.91801706  0.03612167    -0.56100
C1060       C  0.17791270  0.92494413  0.94750723     0.83900
O1061       O  0.14136511  0.88848684  0.03897009    -0.58000
O1062       O  0.18351288  0.90267122  0.12392002    -0.61300
In1063     In  0.09206262  0.68449488  0.03645264     1.36900
C1064       C  0.09531169  0.73474352  0.03680126     0.76400
O1065       O  0.09099140  0.68738057  0.94956774    -0.62100
O1066       O  0.05941779  0.67323820  0.98817523    -0.53000
C1067       C  0.12759850  0.65063089  0.03635936     0.69100
O1068       O  0.13229752  0.67349341  0.03704962    -0.47800
C1069       C  0.06802479  0.68153073  0.12562094     0.73800
O1070       O  0.11436686  0.72113232  0.03693922    -0.59700
O1071       O  0.05923975  0.67312967  0.08417090    -0.49800
O1072       O  0.07534664  0.72275252  0.03651091    -0.56100
C1073       C  0.06825030  0.68193258  0.94703492     0.83900
O1074       O  0.10492187  0.64521178  0.03563618    -0.58000
O1075       O  0.09078703  0.68689732  0.12339697    -0.61300
In1076     In  0.18096412  0.59635863  0.03658980     1.36900
C1077       C  0.23120955  0.59945019  0.03612479     0.76400
O1078       O  0.18384596  0.59542823  0.12350690    -0.62100
O1079       O  0.16959542  0.56386100  0.08504758    -0.53000
C1080       C  0.14681261  0.63160761  0.03643752     0.69100
O1081       O  0.16964350  0.63651270  0.03718947    -0.47800
C1082       C  0.17817970  0.57221501  0.94759113     0.73800
O1083       O  0.21766913  0.61855804  0.03521070    -0.59700
O1084       O  0.16971890  0.56348242  0.98903231    -0.49800
O1085       O  0.21914950  0.57953755  0.03717270    -0.56100
C1086       C  0.17831398  0.57271471  0.12615325     0.83900
O1087       O  0.14159401  0.60889311  0.03578854    -0.58000
O1088       O  0.18357841  0.59497408  0.94971287    -0.61300
C1089       C  0.05050807  0.69181650  0.66652043     0.85300
C1090       C  0.05534638  0.71992075  0.65871035    -0.54900
C1091       C  0.04167813  0.73483886  0.69056492     0.08200
C1092       C  0.02483143  0.71960684  0.72646892     0.19200
C1093       C  0.05563856  0.68687353  0.72467966    -0.55700
C1094       C  0.04187298  0.70182129  0.75705970     0.08300
C1095       C  0.02239505  0.68892098  0.66084848    -0.55200
C1096       C  0.00861564  0.70343740  0.69203024     0.08900
H1097       H  0.06802216  0.72713887  0.62994727     0.13400
H1098       H  0.01342382  0.73080543  0.74922821    -0.00900
H1099       H  0.06840016  0.67282740  0.73841345     0.13700
H1100       H  0.01430329  0.67605446  0.63370648     0.13500
C1101       C  0.05071459  0.80593343  0.66676562     0.85300
C1102       C  0.02260486  0.80895495  0.66120336    -0.54900
C1103       C  0.00877521  0.79446780  0.69232222     0.08200
C1104       C  0.02494603  0.77821143  0.72665955     0.19200
C1105       C  0.05589689  0.81082978  0.72494401    -0.55700
C1106       C  0.04207783  0.79591782  0.75730539     0.08300
C1107       C  0.05543202  0.77781495  0.65886273    -0.55200
C1108       C  0.04172200  0.76293392  0.69065357     0.08900
H1109       H  0.01454458  0.82189896  0.63421528     0.13400
H1110       H  0.01349523  0.76704088  0.74937762    -0.00900
H1111       H  0.06872689  0.82481454  0.73870571     0.13700
H1112       H  0.06806834  0.77055290  0.63006302     0.13500
C1113       C  0.43899799  0.80612013  0.66690062     0.85300
C1114       C  0.43417114  0.77801871  0.65903179    -0.54900
C1115       C  0.44784807  0.76309628  0.69077951     0.08200
C1116       C  0.46469473  0.77832133  0.72673798     0.19200
C1117       C  0.43386332  0.81105004  0.72507636    -0.55700
C1118       C  0.44764388  0.79609802  0.75740619     0.08300
C1119       C  0.46711569  0.80904181  0.66124605    -0.55200
C1120       C  0.48090814  0.79451529  0.69234981     0.08900
H1121       H  0.42149497  0.77079511  0.63027062     0.13400
H1122       H  0.47611495  0.76711512  0.74943679    -0.00900
H1123       H  0.42109417  0.82508539  0.73885808     0.13700
H1124       H  0.47520685  0.82194394  0.63420215     0.13500
C1125       C  0.43882413  0.69200748  0.66664856     0.85300
C1126       C  0.46692246  0.68901443  0.66094099    -0.54900
C1127       C  0.48075924  0.70348561  0.69207836     0.08200
C1128       C  0.46460823  0.71971869  0.72653689     0.19200
C1129       C  0.43367560  0.68709475  0.72480620    -0.55700
C1130       C  0.44749274  0.70200781  0.75715196     0.08300
C1131       C  0.43408153  0.72012742  0.65882254    -0.55200
C1132       C  0.44780705  0.73500307  0.69065860     0.08900
H1133       H  0.47496594  0.67612143  0.63378669     0.13400
H1134       H  0.47606310  0.73087844  0.74927516    -0.00900
H1135       H  0.42085432  0.67310417  0.73856322     0.13700
H1136       H  0.42142097  0.72738305  0.63008037     0.13500
C1137       C  0.43784628  0.80489730  0.90668338     0.85300
C1138       C  0.46597316  0.80961618  0.91451041    -0.54900
C1139       C  0.48083625  0.79590130  0.88264827     0.08200
C1140       C  0.46553477  0.77913338  0.84669474     0.19200
C1141       C  0.43291917  0.81007078  0.84852624    -0.55700
C1142       C  0.44781347  0.79625285  0.81612100     0.08300
C1143       C  0.43483008  0.77679690  0.91227099    -0.55200
C1144       C  0.44929321  0.76297239  0.88107926     0.08900
H1145       H  0.47324674  0.82224722  0.94330553     0.13400
H1146       H  0.47669382  0.76769044  0.82393525    -0.00900
H1147       H  0.41892048  0.82289013  0.83481195     0.13700
H1148       H  0.42191389  0.76874221  0.93934634     0.13500
C1149       C  0.43757923  0.69322675  0.90632405     0.85300
C1150       C  0.43469045  0.72133050  0.91208698    -0.54900
C1151       C  0.44922132  0.73511939  0.88097773     0.08200
C1152       C  0.46539667  0.71891741  0.84650090     0.19200
C1153       C  0.43264036  0.68811765  0.84815793    -0.55700
C1154       C  0.44761078  0.70188362  0.81584428     0.08300
C1155       C  0.46568361  0.68837250  0.91414219    -0.55200
C1156       C  0.48061600  0.70204716  0.88236839     0.08900
H1157       H  0.42182634  0.72941029  0.93925484     0.13400
H1158       H  0.47660780  0.73033327  0.82379060    -0.00900
H1159       H  0.41859938  0.67535474  0.83437254     0.13700
H1160       H  0.47289520  0.67567496  0.94285487     0.13500
C1161       C  0.05170756  0.69293475  0.90625834     0.85300
C1162       C  0.02357848  0.68822117  0.91409268    -0.54900
C1163       C  0.00871330  0.70197011  0.88233487     0.08200
C1164       C  0.02401380  0.71876407  0.84644273     0.19200
C1165       C  0.05661743  0.68780710  0.84807670    -0.55700
C1166       C  0.04172164  0.70165406  0.81576595     0.08300
C1167       C  0.05473396  0.72103159  0.91199981    -0.55200
C1168       C  0.04026836  0.73489187  0.88089739     0.08900
H1169       H  0.01630192  0.67556663  0.94282313     0.13400
H1170       H  0.01285623  0.73023221  0.82374007    -0.00900
H1171       H  0.07060028  0.67498459  0.83427831     0.13700
H1172       H  0.06764940  0.72905550  0.93912251     0.13500
C1173       C  0.05196968  0.80462478  0.90660405     0.85300
C1174       C  0.05486949  0.77650913  0.91214338    -0.54900
C1175       C  0.04033108  0.76275070  0.88097985     0.08200
C1176       C  0.02415108  0.77899183  0.84663098     0.19200
C1177       C  0.05690592  0.80979374  0.84843791    -0.55700
C1178       C  0.04194034  0.79604662  0.81603503     0.08300
C1179       C  0.02386631  0.80946295  0.91446515    -0.55200
C1180       C  0.00893410  0.79582528  0.88262363     0.08900
H1181       H  0.06777151  0.76839159  0.93915246     0.13400
H1182       H  0.01293544  0.76759738  0.82388107    -0.00900
H1183       H  0.07095214  0.82256299  0.83471505     0.13700
H1184       H  0.01665202  0.82212521  0.94326722     0.13500
C1185       C  0.68798621  0.05480895  0.40679625     0.85300
C1186       C  0.71610457  0.05958170  0.41465315    -0.54900
C1187       C  0.73100263  0.04590708  0.38277720     0.08200
C1188       C  0.71574157  0.02911311  0.34680582     0.19200
C1189       C  0.68306752  0.05999213  0.34863937    -0.55700
C1190       C  0.69800195  0.04621833  0.31623202     0.08300
C1191       C  0.68502336  0.02670440  0.41235182    -0.55200
C1192       C  0.69952581  0.01291390  0.38118399     0.08900
H1193       H  0.72334633  0.07222509  0.44345949     0.13400
H1194       H  0.72692134  0.01769602  0.32405046    -0.00900
H1195       H  0.66905700  0.07279859  0.33492506     0.13700
H1196       H  0.67211811  0.01861842  0.43941007     0.13500
C1197       C  0.80211296  0.05480127  0.40670906     0.85300
C1198       C  0.80507264  0.02669303  0.41226502    -0.54900
C1199       C  0.79057213  0.01290150  0.38109343     0.09800
C1200       C  0.77436042  0.02910482  0.34673458     0.19200
C1201       C  0.80705497  0.05997596  0.34855796    -0.55700
C1202       C  0.79212770  0.04619346  0.31615296     0.08300
C1203       C  0.77399981  0.05958194  0.41455502    -0.55200
C1204       C  0.75910127  0.04590587  0.38272300     0.08900
H1205       H  0.81798675  0.01860526  0.43928692     0.13400
H1206       H  0.76317320  0.01768822  0.32399734    -0.00900
H1207       H  0.82108386  0.07276715  0.33484574     0.13700
H1208       H  0.76675476  0.07222853  0.44335346     0.13500
C1209       C  0.80211512  0.44311814  0.40636997     0.85300
C1210       C  0.77399751  0.43834487  0.41424250    -0.54900
C1211       C  0.75909327  0.45205547  0.38249927     0.08200
C1212       C  0.77434702  0.46887882  0.34658504     0.19200
C1213       C  0.80701765  0.43798923  0.34818819    -0.55700
C1214       C  0.79207601  0.45179766  0.31589545     0.08300
C1215       C  0.80508888  0.47122037  0.41208675    -0.55200
C1216       C  0.79057945  0.48504449  0.38100653     0.08900
H1217       H  0.76675481  0.42567328  0.44297722     0.13400
H1218       H  0.76316455  0.48031907  0.32390802    -0.00900
H1219       H  0.82101916  0.42519002  0.33437690     0.13700
H1220       H  0.81800130  0.47927477  0.43917733     0.13500
C1221       C  0.68797925  0.44313597  0.40650892     0.85300
C1222       C  0.68503530  0.47123662  0.41227972    -0.54900
C1223       C  0.69953015  0.48505982  0.38114819     0.08200
C1224       C  0.71573683  0.46889577  0.34667181     0.19200
C1225       C  0.68304803  0.43803042  0.34833136    -0.55700
C1226       C  0.69797667  0.45184153  0.31601335     0.08300
C1227       C  0.71609528  0.43834506  0.41431896    -0.55200
C1228       C  0.73099520  0.45205652  0.38253757     0.08900
H1229       H  0.67215361  0.47928695  0.43944635     0.13400
H1230       H  0.72691514  0.48033112  0.32396137    -0.00900
H1231       H  0.66902262  0.42525168  0.33454210     0.13700
H1232       H  0.72333678  0.42566695  0.44303671     0.13500
C1233       C  0.80078917  0.44194526  0.16665683     0.85300
C1234       C  0.80561575  0.47004866  0.15885139    -0.54900
C1235       C  0.79194774  0.48495533  0.19072048     0.08200
C1236       C  0.77511115  0.46971482  0.22662936     0.19200
C1237       C  0.80594470  0.43700001  0.22480027    -0.55700
C1238       C  0.79218241  0.45194256  0.25719559     0.08300
C1239       C  0.77267922  0.43903102  0.16101186    -0.55200
C1240       C  0.75889717  0.45353545  0.19218971     0.08900
H1241       H  0.81828710  0.47727368  0.13008720     0.13400
H1242       H  0.76370178  0.48090254  0.24938494    -0.00900
H1243       H  0.81872661  0.42296741  0.23851345     0.13700
H1244       H  0.76458616  0.42616051  0.13387887     0.13500
C1245       C  0.68910011  0.44205001  0.16680257     0.85300
C1246       C  0.71720398  0.43908538  0.16104752    -0.54900
C1247       C  0.73103967  0.45356138  0.19220679     0.08200
C1248       C  0.71488506  0.46977202  0.22669166     0.19200
C1249       C  0.68398392  0.43712008  0.22496751    -0.55700
C1250       C  0.69780525  0.45202691  0.25731370     0.08300
C1251       C  0.68433847  0.47016720  0.15900162    -0.55200
C1252       C  0.69806771  0.48504929  0.19081823     0.08900
H1253       H  0.72524614  0.42620849  0.13385950     0.13400
H1254       H  0.72632980  0.48093508  0.24942720    -0.00900
H1255       H  0.67118957  0.42310663  0.23872997     0.13700
H1256       H  0.67167515  0.47741919  0.13026124     0.13500
C1257       C  0.68924713  0.05617111  0.16700483     0.85300
C1258       C  0.68444300  0.02806423  0.15911173    -0.54900
C1259       C  0.69812017  0.01314456  0.19087404     0.08200
C1260       C  0.71495571  0.02837554  0.22683614     0.19200
C1261       C  0.68409882  0.06107757  0.22518813    -0.55700
C1262       C  0.69787994  0.04612132  0.25751245     0.08300
C1263       C  0.71736171  0.05911542  0.16136606    -0.55200
C1264       C  0.73116021  0.04459019  0.19246037     0.08900
H1265       H  0.67176927  0.02083665  0.13035069     0.13400
H1266       H  0.72637749  0.01717905  0.24952625    -0.00900
H1267       H  0.67130615  0.07508929  0.23897877     0.13700
H1268       H  0.72544658  0.07202786  0.13433257     0.13500
C1269       C  0.80096703  0.05603708  0.16690598     0.85300
C1270       C  0.77285512  0.05904140  0.16130658    -0.54900
C1271       C  0.75902644  0.04455465  0.19242821     0.08200
C1272       C  0.77519715  0.02831663  0.22679100     0.19200
C1273       C  0.80612760  0.06095602  0.22508223    -0.55700
C1274       C  0.79230324  0.04604408  0.25743511     0.08300
C1275       C  0.80570634  0.02792349  0.15904266    -0.55200
C1276       C  0.79199128  0.01304484  0.19082022     0.08900
H1277       H  0.76479216  0.07197612  0.13430331     0.13400
H1278       H  0.76375385  0.01714534  0.24948821    -0.00900
H1279       H  0.81894081  0.07495574  0.23884643     0.13700
H1280       H  0.81835608  0.02066260  0.13026735     0.13500
C1281       C  0.93861565  0.19135775  0.40644856     0.85300
C1282       C  0.93389653  0.21947560  0.41435490    -0.54900
C1283       C  0.94760523  0.23435591  0.38256386     0.08200
C1284       C  0.96438013  0.21907908  0.34656026     0.19200
C1285       C  0.93342485  0.18646229  0.34827499    -0.55700
C1286       C  0.94724100  0.20137995  0.31591751     0.08300
C1287       C  0.96672355  0.18833199  0.41200036    -0.55200
C1288       C  0.98055130  0.20281729  0.38088935     0.08900
H1289       H  0.92125813  0.22673703  0.44315151     0.13400
H1290       H  0.97582992  0.23024790  0.32385409    -0.00900
H1291       H  0.92058967  0.17248174  0.33451467     0.13700
H1292       H  0.97478707  0.17538561  0.43898042     0.13500
C1293       C  0.93882817  0.30546807  0.40670538     0.85300
C1294       C  0.96694146  0.30835463  0.41238713    -0.54900
C1295       C  0.98071883  0.29384102  0.38120639     0.08200
C1296       C  0.96449868  0.27768228  0.34674843     0.19200
C1297       C  0.93369781  0.31042547  0.34855954    -0.55700
C1298       C  0.94745911  0.29548116  0.31617259     0.08300
C1299       C  0.93397841  0.27736586  0.41449961    -0.55200
C1300       C  0.94764622  0.26244937  0.38264343     0.08900
H1301       H  0.97503764  0.32121498  0.43953545     0.13400
H1302       H  0.97590379  0.26648596  0.32398893    -0.00900
H1303       H  0.92094108  0.32447916  0.33483849     0.13700
H1304       H  0.92130028  0.27014827  0.44325931     0.13500
C1305       C  0.55033077  0.19114523  0.40628759     0.85300
C1306       C  0.52221261  0.18822462  0.41195875    -0.54900
C1307       C  0.50841738  0.20276024  0.38086590     0.08200
C1308       C  0.52462633  0.21895935  0.34648385     0.19200
C1309       C  0.55545325  0.18622852  0.34809779    -0.55700
C1310       C  0.54166845  0.20118840  0.31578762     0.08300
C1311       C  0.55515746  0.21924596  0.41417486    -0.55200
C1312       C  0.54147783  0.23417590  0.38244750     0.08900
H1313       H  0.51412615  0.17531932  0.43900335     0.13400
H1314       H  0.51320752  0.23016850  0.32380084    -0.00900
H1315       H  0.56822016  0.17219650  0.33429329     0.13700
H1316       H  0.56783744  0.22646474  0.44293372     0.13500
C1317       C  0.55051696  0.30526308  0.40662098     0.85300
C1318       C  0.55525198  0.27714067  0.41443556    -0.54900
C1319       C  0.54152383  0.26227015  0.38258715     0.08200
C1320       C  0.52472499  0.27756128  0.34671202     0.19200
C1321       C  0.55566102  0.31017897  0.34846177    -0.55700
C1322       C  0.54183977  0.29527676  0.31610529     0.08300
C1323       C  0.52241706  0.30825673  0.41233761    -0.55200
C1324       C  0.50857651  0.29379042  0.38118203     0.08900
H1325       H  0.56790878  0.26987968  0.44317876     0.13400
H1326       H  0.51327103  0.26640806  0.32396416    -0.00900
H1327       H  0.56848229  0.32417035  0.33471028     0.13700
H1328       H  0.51437829  0.32114600  0.43950490     0.13500
C1329       C  0.93732486  0.19272375  0.16663745     0.85300
C1330       C  0.96542684  0.18787884  0.15875926    -0.54900
C1331       C  0.98036596  0.20150816  0.19059577     0.08200
C1332       C  0.96515478  0.21833693  0.22660840     0.19200
C1333       C  0.93238948  0.18754040  0.22479135    -0.55700
C1334       C  0.94736447  0.20127464  0.25719520     0.08300
C1335       C  0.93442676  0.22083858  0.16112279    -0.55200
C1336       C  0.94897398  0.23458731  0.19227587     0.08900
H1337       H  0.97263593  0.17521887  0.12994715     0.13400
H1338       H  0.97637429  0.22972515  0.24935102    -0.00900
H1339       H  0.91834223  0.17476989  0.23850641     0.13700
H1340       H  0.92152178  0.22896430  0.13413018     0.13500
C1341       C  0.93762756  0.30440659  0.16698851     0.85300
C1342       C  0.93459039  0.27631159  0.16123585    -0.54900
C1343       C  0.94905158  0.26244435  0.19233786     0.08200
C1344       C  0.96531333  0.27856228  0.22678932     0.19200
C1345       C  0.93271585  0.30952640  0.22517331    -0.55700
C1346       C  0.94760925  0.29566849  0.25747301     0.08300
C1347       C  0.96575650  0.30911470  0.15916380    -0.55200
C1348       C  0.98061685  0.29535853  0.19090926     0.08900
H1349       H  0.92166812  0.26829594  0.13411724     0.13400
H1350       H  0.97646766  0.26709060  0.24947537    -0.00900
H1351       H  0.91873412  0.32234814  0.23898003     0.13700
H1352       H  0.97303749  0.32177435  0.13044841     0.13500
C1353       C  0.55175105  0.30410554  0.16692380     0.85300
C1354       C  0.52364704  0.30896204  0.15911088    -0.54900
C1355       C  0.50871288  0.29528214  0.19087690     0.08200
C1356       C  0.52392761  0.27840309  0.22673318     0.19200
C1357       C  0.55668621  0.30919776  0.22510364    -0.55700
C1358       C  0.54171575  0.29542389  0.25740714     0.08300
C1359       C  0.55463301  0.27599985  0.16113839    -0.55200
C1360       C  0.54009864  0.26220594  0.19224383     0.08900
H1361       H  0.51643689  0.32166384  0.13040521     0.13400
H1362       H  0.51271739  0.26698720  0.24943600    -0.00900
H1363       H  0.57072891  0.32195457  0.23890504     0.13700
H1364       H  0.56749522  0.26792409  0.13396243     0.13500
C1365       C  0.55145484  0.19243009  0.16648842     0.85300
C1366       C  0.55447465  0.22053080  0.16093222    -0.54900
C1367       C  0.54001686  0.23435163  0.19213511     0.08200
C1368       C  0.52377273  0.21818554  0.22651401     0.19200
C1369       C  0.55637974  0.18723965  0.22464090    -0.55700
C1370       C  0.54149106  0.20105160  0.25706731     0.08300
C1371       C  0.52332538  0.18771940  0.15865581    -0.55200
C1372       C  0.50846524  0.20142823  0.19054572     0.08900
H1373       H  0.56739150  0.22859123  0.13386674     0.13400
H1374       H  0.51262015  0.22962509  0.24928897    -0.00900
H1375       H  0.57037557  0.17441311  0.23833831     0.13700
H1376       H  0.51604947  0.17509827  0.12984411     0.13500
C1377       C  0.68767965  0.44267453  0.66675379     0.85300
C1378       C  0.71579302  0.43789639  0.65888968    -0.54900
C1379       C  0.73069740  0.45157493  0.69071164     0.08200
C1380       C  0.71544368  0.46837801  0.72671069     0.19200
C1381       C  0.68275110  0.43750865  0.72492215    -0.55700
C1382       C  0.69768122  0.45129650  0.75731770     0.08300
C1383       C  0.68472238  0.47078399  0.66119019    -0.55200
C1384       C  0.69922768  0.48457868  0.69235581     0.08900
H1385       H  0.72303413  0.42525151  0.63008357     0.13400
H1386       H  0.72663221  0.47979499  0.74944632    -0.00900
H1387       H  0.66872393  0.42472030  0.73865222     0.13700
H1388       H  0.67180684  0.47886912  0.63416692     0.13500
C1389       C  0.80181325  0.44268431  0.66659963     0.85300
C1390       C  0.80477196  0.47078936  0.66103515    -0.54900
C1391       C  0.79027114  0.48457754  0.69221495     0.08200
C1392       C  0.77406091  0.46837647  0.72659456     0.19200
C1393       C  0.80674049  0.43750408  0.72474999    -0.55700
C1394       C  0.79180746  0.45127610  0.75715856     0.08300
C1395       C  0.77369425  0.43790689  0.65875433    -0.55200
C1396       C  0.75879738  0.45157999  0.69063414     0.08900
H1397       H  0.81767442  0.47887547  0.63397129     0.13400
H1398       H  0.76288192  0.47979193  0.74934924    -0.00900
H1399       H  0.82075584  0.42470172  0.73845906     0.13700
H1400       H  0.76645079  0.42526064  0.62995518     0.13500
C1401       C  0.68768423  0.05436196  0.66707187     0.85300
C1402       C  0.68471350  0.02625939  0.66136270    -0.54900
C1403       C  0.69922124  0.01243693  0.69244765     0.08200
C1404       C  0.71545347  0.02860533  0.72687111     0.19200
C1405       C  0.68278395  0.05949512  0.72525830    -0.55700
C1406       C  0.69772703  0.04569020  0.75755947     0.08300
C1407       C  0.71580125  0.05913571  0.65920063    -0.55200
C1408       C  0.73070566  0.04542877  0.69095311     0.08900
H1409       H  0.67180663  0.01820239  0.63426254     0.13400
H1410       H  0.72663609  0.01716626  0.74955531    -0.00900
H1411       H  0.66878562  0.07229837  0.73906649     0.13700
H1412       H  0.72304301  0.07180576  0.63046178     0.13500
C1413       C  0.80181263  0.05435441  0.66693830     0.85300
C1414       C  0.77369732  0.05914805  0.65914279    -0.54900
C1415       C  0.75880240  0.04543263  0.69091993     0.08200
C1416       C  0.77406580  0.02859273  0.72677290     0.19200
C1417       C  0.80675651  0.05946108  0.72510087    -0.55700
C1418       C  0.79183182  0.04565065  0.75741967     0.08300
C1419       C  0.80475901  0.02625565  0.66115551    -0.55200
C1420       C  0.79026787  0.01243068  0.69228074     0.08900
H1421       H  0.76645278  0.07182907  0.63043377     0.13400
H1422       H  0.76288821  0.01715497  0.74947748    -0.00900
H1423       H  0.82078369  0.07224056  0.73888017     0.13700
H1424       H  0.81763889  0.01820657  0.63398380     0.13500
C1425       C  0.68886352  0.44146395  0.90660124     0.85300
C1426       C  0.68413053  0.46958057  0.91448332    -0.54900
C1427       C  0.69783486  0.48446432  0.88268629     0.08200
C1428       C  0.71461807  0.46919127  0.84668335     0.19200
C1429       C  0.68369139  0.43655230  0.84842124    -0.55700
C1430       C  0.69750816  0.45146208  0.81604906     0.08300
C1431       C  0.71697753  0.43846154  0.91216730    -0.55200
C1432       C  0.73079825  0.45295072  0.88102369     0.08900
H1433       H  0.67149342  0.47684030  0.94328412     0.13400
H1434       H  0.72605495  0.48036161  0.82396529    -0.00900
H1435       H  0.67087886  0.42255005  0.83466697     0.13700
H1436       H  0.72504571  0.42552556  0.93916084     0.13500
C1437       C  0.80058281  0.44134001  0.90637081     0.85300
C1438       C  0.77246979  0.43839306  0.91202468    -0.54900
C1439       C  0.75866501  0.45291434  0.88094326     0.08200
C1440       C  0.77486329  0.46912586  0.84654780     0.19200
C1441       C  0.80572546  0.43642380  0.84819113    -0.55700
C1442       C  0.79193763  0.45137703  0.81587123     0.08300
C1443       C  0.80539000  0.46944407  0.91424215    -0.55200
C1444       C  0.79170521  0.48435769  0.88249171     0.08900
H1445       H  0.76438872  0.42548202  0.93906530     0.13400
H1446       H  0.76343605  0.48032237  0.82386744    -0.00900
H1447       H  0.81851756  0.42241147  0.83440051     0.13700
H1448       H  0.81806990  0.47667434  0.94298851     0.13500
C1449       C  0.80072613  0.05543511  0.90661227     0.85300
C1450       C  0.80548877  0.02731971  0.91438351    -0.54900
C1451       C  0.79175305  0.01244753  0.88256868     0.08200
C1452       C  0.77492988  0.02772943  0.84672510     0.19200
C1453       C  0.80583857  0.06037712  0.84845119    -0.55700
C1454       C  0.79200984  0.04547308  0.81610838     0.08300
C1455       C  0.77262491  0.05840641  0.91237929    -0.55200
C1456       C  0.75878340  0.04394040  0.88122293     0.08900
H1457       H  0.81816082  0.02006221  0.94310119     0.13400
H1458       H  0.76347931  0.01656858  0.82400286    -0.00900
H1459       H  0.81863527  0.07438934  0.83469096     0.13700
H1460       H  0.76458681  0.07128267  0.93957334     0.13500
C1461       C  0.68904124  0.05558465  0.90681026     0.85300
C1462       C  0.71715244  0.05849763  0.91242844    -0.54900
C1463       C  0.73092697  0.04398045  0.88125471     0.08200
C1464       C  0.71470620  0.02779453  0.84684327     0.19200
C1465       C  0.68387703  0.06051074  0.84865995    -0.55700
C1466       C  0.69763113  0.04555909  0.81626745     0.08300
C1467       C  0.68421921  0.02747827  0.91465534    -0.55200
C1468       C  0.69787889  0.01256012  0.88278320     0.08900
H1469       H  0.72525046  0.07137495  0.93954109     0.13400
H1470       H  0.72611011  0.01660326  0.82408515    -0.00900
H1471       H  0.67109402  0.07454050  0.83493909     0.13700
H1472       H  0.67155620  0.02025951  0.94344217     0.13500
In1473     In  0.64735721  0.06270084  0.53682194     1.36900
C1474       C  0.64418488  0.01245386  0.53648747     0.76400
O1475       O  0.64863556  0.06028754  0.44987008    -0.62100
O1476       O  0.68017351  0.07406053  0.48913343    -0.53000
C1477       C  0.61191104  0.09663694  0.53691467     0.69100
O1478       O  0.60715037  0.07378450  0.53628426    -0.47800
C1479       C  0.67112289  0.06531467  0.62627398     0.73800
O1480       O  0.62510186  0.02603019  0.53632225    -0.59700
O1481       O  0.67995114  0.07401788  0.58513811    -0.49800
O1482       O  0.66412948  0.02447862  0.53679447    -0.56100
C1483       C  0.67139564  0.06567222  0.44766538     0.83900
O1484       O  0.63459873  0.10200274  0.53754708    -0.58000
O1485       O  0.64839524  0.05981060  0.62371217    -0.61300
In1486     In  0.55866984  0.15101271  0.53676019     1.36900
C1487       C  0.50843877  0.14790391  0.53723816     0.76400
O1488       O  0.55601689  0.15242421  0.62363781    -0.62100
O1489       O  0.56987510  0.18391469  0.58432302    -0.53000
C1490       C  0.59275126  0.11570788  0.53687945     0.69100
O1491       O  0.56991219  0.11085144  0.53618440    -0.47800
C1492       C  0.56127749  0.17460353  0.44713151     0.73800
O1493       O  0.52198234  0.12879950  0.53820438    -0.59700
O1494       O  0.57007483  0.18345791  0.48816694    -0.49800
O1495       O  0.52049185  0.16782038  0.53612747    -0.56100
C1496       C  0.56139466  0.17518710  0.62575429     0.83900
O1497       O  0.59802363  0.13841201  0.53751580    -0.58000
O1498       O  0.55570220  0.15190428  0.44985808    -0.61300
In1499     In  0.93066384  0.15123046  0.53695362     1.36900
C1500       C  0.98089979  0.14796209  0.53728514     0.76400
O1501       O  0.93316711  0.15212739  0.44996738    -0.62100
O1502       O  0.91917662  0.18373836  0.48862843    -0.53000
C1503       C  0.89675471  0.11583242  0.53729101     0.69100
O1504       O  0.91959413  0.11106126  0.53558942    -0.47800
C1505       C  0.92790466  0.17540202  0.62591021     0.73800
O1506       O  0.96728560  0.12891781  0.53847744    -0.59700
O1507       O  0.91950006  0.18415350  0.58444503    -0.49800
O1508       O  0.96891717  0.16791839  0.53605058    -0.56100
C1509       C  0.92769858  0.17485197  0.44738025     0.83900
O1510       O  0.89139431  0.13850373  0.53886300    -0.58000
O1511       O  0.93323023  0.15262510  0.62382693    -0.61300
In1512     In  0.84237792  0.06270530  0.53706103     1.36900
C1513       C  0.84557181  0.01249077  0.53705951     0.76400
O1514       O  0.84115460  0.05990679  0.62390525    -0.62100
O1515       O  0.80959772  0.07387060  0.58492068    -0.53000
C1516       C  0.87768496  0.09670455  0.53733841     0.69100
O1517       O  0.88252707  0.07388005  0.53574369    -0.47800
C1518       C  0.81864256  0.06568472  0.44763517     0.73800
O1519       O  0.86465290  0.02606945  0.53779335    -0.59700
O1520       O  0.80978382  0.07416646  0.48894767    -0.49800
O1521       O  0.82562221  0.02449987  0.53640346    -0.56100
C1522       C  0.81839375  0.06530246  0.62620440     0.83900
O1523       O  0.85499446  0.10199828  0.53888797    -0.58000
O1524       O  0.84137737  0.06023261  0.45010644    -0.61300
In1525     In  0.93082663  0.34625365  0.53644255     1.36900
C1526       C  0.98107157  0.34937112  0.53597182     0.76400
O1527       O  0.93364721  0.34535935  0.62335685    -0.62100
O1528       O  0.91936675  0.31379685  0.58493231    -0.53000
C1529       C  0.89687144  0.38163959  0.53639533     0.69100
O1530       O  0.91972138  0.38643545  0.53705292    -0.47800
C1531       C  0.92796320  0.32209556  0.44747333     0.73800
O1532       O  0.96751678  0.36846290  0.53498157    -0.59700
O1533       O  0.91954587  0.31336348  0.48895080    -0.49800
O1534       O  0.96902450  0.32944965  0.53710066    -0.56100
C1535       C  0.92808052  0.32265719  0.62603491     0.83900
O1536       O  0.89152601  0.35895366  0.53573385    -0.58000
O1537       O  0.93334376  0.34485771  0.44955582    -0.61300
In1538     In  0.84241974  0.43474175  0.53659524     1.36900
C1539       C  0.84558230  0.48496041  0.53695085     0.76400
O1540       O  0.84140089  0.43765601  0.44971928    -0.62100
O1541       O  0.80983709  0.42344412  0.48827460    -0.53000
C1542       C  0.87777394  0.40075433  0.53643354     0.69100
O1543       O  0.88259775  0.42359459  0.53701615    -0.47800
C1544       C  0.81839976  0.43181237  0.62574354     0.73800
O1545       O  0.86467544  0.47139691  0.53716529    -0.59700
O1546       O  0.80961556  0.42340690  0.58429627    -0.49800
O1547       O  0.82563929  0.47293521  0.53657843    -0.56100
C1548       C  0.81867194  0.43215665  0.44715349     0.83900
O1549       O  0.85507629  0.39543497  0.53591295    -0.58000
O1550       O  0.84116171  0.43719159  0.62353257    -0.61300
In1551     In  0.64735478  0.43467068  0.53640148     1.36900
C1552       C  0.64417944  0.48491224  0.53639854     0.76400
O1553       O  0.64840102  0.43724290  0.62335944    -0.62100
O1554       O  0.67996617  0.42322661  0.58456575    -0.53000
C1555       C  0.61199029  0.40062208  0.53604224     0.69100
O1556       O  0.60717693  0.42345350  0.53767251    -0.47800
C1557       C  0.67138188  0.43217599  0.44723744     0.73800
O1558       O  0.62509377  0.47133522  0.53571353    -0.59700
O1559       O  0.68015475  0.42353468  0.48848076    -0.49800
O1560       O  0.66412032  0.47288901  0.53702190    -0.56100
C1561       C  0.67113185  0.43177488  0.62584508     0.83900
O1562       O  0.63468593  0.39533570  0.53452577    -0.58000
O1563       O  0.64862589  0.43759033  0.44956138    -0.61300
In1564     In  0.55886019  0.34609609  0.53627414     1.36900
C1565       C  0.50861480  0.34933931  0.53593079     0.76400
O1566       O  0.55613947  0.34465529  0.44942501    -0.62100
O1567       O  0.56996578  0.31314827  0.48873508    -0.53000
C1568       C  0.59287913  0.38148984  0.53601096     0.69100
O1569       O  0.57003963  0.38627416  0.53768156    -0.47800
C1570       C  0.56166161  0.32244875  0.62586069     0.73800
O1571       O  0.52221948  0.36839447  0.53470548    -0.59700
O1572       O  0.57029507  0.31358117  0.58469009    -0.49800
O1573       O  0.52061171  0.32939373  0.53720273    -0.56100
C1574       C  0.56146812  0.32187893  0.44732848     0.83900
O1575       O  0.59819176  0.35880511  0.53440066    -0.58000
O1576       O  0.55617330  0.34516757  0.62323093    -0.61300
In1577     In  0.89731651  0.31290374  0.03676471     1.36900
C1578       C  0.89403615  0.26268513  0.03640442     0.76400
O1579       O  0.89853053  0.31045706  0.94982448    -0.62100
O1580       O  0.93010387  0.32423254  0.98896618    -0.53000
C1581       C  0.86191490  0.34684926  0.03694848     0.69100
O1582       O  0.85713357  0.32400280  0.03634335    -0.47800
C1583       C  0.92110576  0.31542251  0.12619699     0.73800
O1584       O  0.87498089  0.27629816  0.03619850    -0.59700
O1585       O  0.92996248  0.32409590  0.08505793    -0.49800
O1586       O  0.91400878  0.27466257  0.03676325    -0.56100
C1587       C  0.92129407  0.31581464  0.94755185     0.83900
O1588       O  0.88460532  0.35220845  0.03751873    -0.58000
O1589       O  0.89835733  0.31000722  0.12364927    -0.61300
In1590     In  0.80873366  0.40122238  0.03684847     1.36900
C1591       C  0.75847893  0.39807544  0.03733247     0.76400
O1592       O  0.80627581  0.40257483  0.12374461    -0.62100
O1593       O  0.82000580  0.43409991  0.08434739    -0.53000
C1594       C  0.84277153  0.36591947  0.03694346     0.69100
O1595       O  0.81993164  0.36106819  0.03625179    -0.47800
C1596       C  0.81150252  0.42481904  0.94725835     0.73800
O1597       O  0.77204924  0.37899387  0.03829033    -0.59700
O1598       O  0.82014745  0.43370055  0.98840351    -0.49800
O1599       O  0.77051366  0.41800537  0.03622874    -0.56100
C1600       C  0.81164185  0.42534027  0.12584612     0.83900
O1601       O  0.84806211  0.38861711  0.03759030    -0.58000
O1602       O  0.80598029  0.40210465  0.94991439    -0.61300
In1603     In  0.80898374  0.09614585  0.03638536     1.36900
C1604       C  0.75875046  0.09938891  0.03608390     0.76400
O1605       O  0.80632562  0.09479159  0.94952758    -0.62100
O1606       O  0.82015823  0.06326120  0.98874446    -0.53000
C1607       C  0.84281028  0.13163501  0.03606304     0.69100
O1608       O  0.81995854  0.13633696  0.03777155    -0.47800
C1609       C  0.81190708  0.07253488  0.12598115     0.73800
O1610       O  0.77236051  0.11843575  0.03490361    -0.59700
O1611       O  0.82047883  0.06364760  0.08477318    -0.49800
O1612       O  0.77073793  0.07943384  0.03730231    -0.56100
C1613       C  0.81167465  0.07202405  0.94735440     0.83900
O1614       O  0.84823548  0.10897622  0.03448377    -0.58000
O1615       O  0.80642931  0.09525436  0.12335654    -0.61300
In1616     In  0.89704131  0.18492390  0.03626467     1.36900
C1617       C  0.89397040  0.23515123  0.03629922     0.76400
O1618       O  0.89804287  0.18738643  0.12322933    -0.62100
O1619       O  0.92961852  0.17342779  0.08435240    -0.53000
C1620       C  0.86181951  0.15082851  0.03600789     0.69100
O1621       O  0.85691146  0.17364232  0.03762479    -0.47800
C1622       C  0.92098150  0.18231990  0.94707738     0.73800
O1623       O  0.87485197  0.22161968  0.03552438    -0.59700
O1624       O  0.92977465  0.17372504  0.98834040    -0.49800
O1625       O  0.91388868  0.22309019  0.03699114    -0.56100
C1626       C  0.92077060  0.18189604  0.12568843     0.83900
O1627       O  0.88452335  0.14560350  0.03442256    -0.58000
O1628       O  0.89823261  0.18776750  0.94941709    -0.61300
In1629     In  0.59231805  0.31253705  0.03696031     1.36900
C1630       C  0.59537666  0.26228685  0.03690727     0.76400
O1631       O  0.59109942  0.30955774  0.12379415    -0.62100
O1632       O  0.55958647  0.32372988  0.08498973    -0.53000
C1633       C  0.62764050  0.34663731  0.03728237     0.69100
O1634       O  0.63248902  0.32381119  0.03561072    -0.47800
C1635       C  0.56853332  0.31547854  0.94753592     0.73800
O1636       O  0.61449472  0.27582191  0.03762388    -0.59700
O1637       O  0.55970694  0.32400514  0.98884417    -0.49800
O1638       O  0.57546214  0.27435469  0.03627681    -0.56100
C1639       C  0.56835989  0.31503688  0.12618655     0.83900
O1640       O  0.60493779  0.35188443  0.03885503    -0.58000
O1641       O  0.59126006  0.30998725  0.94999957    -0.61300
In1642     In  0.68068495  0.40127057  0.03708545     1.36900
C1643       C  0.73093273  0.39808326  0.03738562     0.76400
O1644       O  0.68340395  0.40222678  0.95013505    -0.62100
O1645       O  0.66925386  0.43380159  0.98866847    -0.53000
C1646       C  0.64671722  0.36581035  0.03730993     0.69100
O1647       O  0.66956488  0.36107195  0.03559815    -0.47800
C1648       C  0.67813348  0.42543281  0.12610567     0.73800
O1649       O  0.71734642  0.37901443  0.03862105    -0.59700
O1650       O  0.66953717  0.43416178  0.08478238    -0.49800
O1651       O  0.71891490  0.41801716  0.03612174    -0.56100
C1652       C  0.67791268  0.42494423  0.94750721     0.83900
O1653       O  0.64136510  0.38848683  0.03896969    -0.58000
O1654       O  0.68351287  0.40267127  0.12391998    -0.61300
In1655     In  0.59206254  0.18449491  0.03645267     1.36900
C1656       C  0.59531165  0.23474357  0.03680126     0.76400
O1657       O  0.59099138  0.18738053  0.94956775    -0.62100
O1658       O  0.55941773  0.17323834  0.98817541    -0.53000
C1659       C  0.62759845  0.15063095  0.03635929     0.69100
O1660       O  0.63229744  0.17349349  0.03704961    -0.47800
C1661       C  0.56802477  0.18153071  0.12562099     0.73800
O1662       O  0.61436682  0.22113238  0.03693923    -0.59700
O1663       O  0.55923971  0.17312966  0.08417097    -0.49800
O1664       O  0.57534661  0.22275255  0.03651092    -0.56100
C1665       C  0.56825027  0.18193260  0.94703501     0.83900
O1666       O  0.60492184  0.14521182  0.03563616    -0.58000
O1667       O  0.59078701  0.18689731  0.12339698    -0.61300
In1668     In  0.68096411  0.09635872  0.03658960     1.36900
C1669       C  0.73120953  0.09945020  0.03612449     0.76400
O1670       O  0.68384594  0.09542825  0.12350664    -0.62100
O1671       O  0.66959538  0.06386103  0.08504744    -0.53000
C1672       C  0.64681259  0.13160769  0.03643739     0.69100
O1673       O  0.66964347  0.13651277  0.03718974    -0.47800
C1674       C  0.67817970  0.07221509  0.94759107     0.73800
O1675       O  0.71766913  0.11855807  0.03521025    -0.59700
O1676       O  0.66971886  0.06348254  0.98903226    -0.49800
O1677       O  0.71914946  0.07953757  0.03717265    -0.56100
C1678       C  0.67831390  0.07271475  0.12615314     0.83900
O1679       O  0.64159399  0.10889317  0.03578806    -0.58000
O1680       O  0.68357842  0.09497415  0.94971271    -0.61300
C1681       C  0.55050809  0.19181649  0.66652049     0.85300
C1682       C  0.55534640  0.21992075  0.65871040    -0.54900
C1683       C  0.54167817  0.23483888  0.69056498     0.08200
C1684       C  0.52483148  0.21960686  0.72646899     0.19200
C1685       C  0.55563858  0.18687352  0.72467972    -0.55700
C1686       C  0.54187303  0.20182130  0.75705976     0.08300
C1687       C  0.52239507  0.18892095  0.66084854    -0.55200
C1688       C  0.50861568  0.20343740  0.69203032     0.08900
H1689       H  0.56802215  0.22713885  0.62994723     0.13400
H1690       H  0.51342389  0.23080545  0.74922822    -0.00900
H1691       H  0.56840016  0.17282735  0.73841351     0.13700
H1692       H  0.51430334  0.17605444  0.63370664     0.13500
C1693       C  0.55071459  0.30593350  0.66676566     0.85300
C1694       C  0.52260486  0.30895507  0.66120351    -0.54900
C1695       C  0.50877522  0.29446788  0.69232230     0.08200
C1696       C  0.52494604  0.27821149  0.72665960     0.19200
C1697       C  0.55589691  0.31082990  0.72494404    -0.55700
C1698       C  0.54207782  0.29591793  0.75730541     0.08300
C1699       C  0.55543201  0.27781501  0.65886273    -0.55200
C1700       C  0.54172201  0.26293398  0.69065359     0.08900
H1701       H  0.51454459  0.32189912  0.63421549     0.13400
H1702       H  0.51349527  0.26704098  0.74937754    -0.00900
H1703       H  0.56872687  0.32481464  0.73870566     0.13700
H1704       H  0.56806832  0.27055295  0.63006307     0.13500
C1705       C  0.93899801  0.30612016  0.66690066     0.85300
C1706       C  0.93417114  0.27801877  0.65903182    -0.54900
C1707       C  0.94784808  0.26309631  0.69077949     0.08200
C1708       C  0.96469475  0.27832133  0.72673801     0.19200
C1709       C  0.93386333  0.31105005  0.72507639    -0.55700
C1710       C  0.94764389  0.29609803  0.75740620     0.08300
C1711       C  0.96711570  0.30904181  0.66124609    -0.55200
C1712       C  0.98090815  0.29451530  0.69234983     0.08900
H1713       H  0.92149494  0.27079520  0.63027062     0.13400
H1714       H  0.97611494  0.26711515  0.74943668    -0.00900
H1715       H  0.92109415  0.32508537  0.73885812     0.13700
H1716       H  0.97520687  0.32194395  0.63420211     0.13500
C1717       C  0.93882407  0.19200750  0.66664856     0.85300
C1718       C  0.96692241  0.18901441  0.66094098    -0.54900
C1719       C  0.98075919  0.20348561  0.69207836     0.08200
C1720       C  0.96460818  0.21971870  0.72653685     0.19200
C1721       C  0.93367554  0.18709477  0.72480625    -0.55700
C1722       C  0.94749269  0.20200785  0.75715196     0.08300
C1723       C  0.93408149  0.22012745  0.65882253    -0.55200
C1724       C  0.94780703  0.23500310  0.69065856     0.08900
H1725       H  0.97496586  0.17612145  0.63378671     0.13400
H1726       H  0.97606309  0.23087847  0.74927522    -0.00900
H1727       H  0.92085433  0.17310421  0.73856330     0.13700
H1728       H  0.92142094  0.22738308  0.63008033     0.13500
C1729       C  0.93784628  0.30489731  0.90668337     0.85300
C1730       C  0.96597314  0.30961617  0.91451037    -0.54900
C1731       C  0.98083624  0.29590129  0.88264826     0.08200
C1732       C  0.96553477  0.27913336  0.84669471     0.19200
C1733       C  0.93291918  0.31007084  0.84852623    -0.55700
C1734       C  0.94781347  0.29625287  0.81612101     0.08300
C1735       C  0.93483006  0.27679691  0.91227096    -0.55200
C1736       C  0.94929320  0.26297239  0.88107924     0.08900
H1737       H  0.97324674  0.32224726  0.94330552     0.13400
H1738       H  0.97669376  0.26769046  0.82393533    -0.00900
H1739       H  0.91892054  0.32289021  0.83481202     0.13700
H1740       H  0.92191388  0.26874221  0.93934632     0.13500
C1741       C  0.93757922  0.19322674  0.90632405     0.85300
C1742       C  0.93469045  0.22133049  0.91208698    -0.54900
C1743       C  0.94922131  0.23511939  0.88097774     0.08200
C1744       C  0.96539665  0.21891741  0.84650093     0.19200
C1745       C  0.93264035  0.18811765  0.84815792    -0.55700
C1746       C  0.94761077  0.20188364  0.81584428     0.08300
C1747       C  0.96568360  0.18837249  0.91414219    -0.55200
C1748       C  0.98061599  0.20204715  0.88236840     0.08900
H1749       H  0.92182634  0.22941028  0.93925484     0.13400
H1750       H  0.97660778  0.23033329  0.82379052    -0.00900
H1751       H  0.91859937  0.17535475  0.83437252     0.13700
H1752       H  0.97289519  0.17567495  0.94285487     0.13500
C1753       C  0.55170755  0.19293474  0.90625839     0.85300
C1754       C  0.52357847  0.18822116  0.91409270    -0.54900
C1755       C  0.50871329  0.20197010  0.88233488     0.08200
C1756       C  0.52401380  0.21876406  0.84644275     0.19200
C1757       C  0.55661744  0.18780709  0.84807677    -0.55700
C1758       C  0.54172165  0.20165405  0.81576600     0.08300
C1759       C  0.55473393  0.22103158  0.91199981    -0.55200
C1760       C  0.54026835  0.23489186  0.88089741     0.08900
H1761       H  0.51630190  0.17556661  0.94282314     0.13400
H1762       H  0.51285619  0.23023222  0.82374009    -0.00900
H1763       H  0.57060029  0.17498459  0.83427839     0.13700
H1764       H  0.56764938  0.22905552  0.93912261     0.13500
C1765       C  0.55196968  0.30462477  0.90660406     0.85300
C1766       C  0.55486949  0.27650913  0.91214336    -0.54900
C1767       C  0.54033108  0.26275071  0.88097981     0.08200
C1768       C  0.52415108  0.27899185  0.84663095     0.19200
C1769       C  0.55690592  0.30979377  0.84843795    -0.55700
C1770       C  0.54194032  0.29604669  0.81603504     0.08300
C1771       C  0.52386631  0.30946294  0.91446516    -0.55200
C1772       C  0.50893410  0.29582527  0.88262363     0.08900
H1773       H  0.56777150  0.26839157  0.93915245     0.13400
H1774       H  0.51293544  0.26759742  0.82388108    -0.00900
H1775       H  0.57095216  0.32256301  0.83471512     0.13700
H1776       H  0.51665201  0.32212520  0.94326723     0.13500
C1777       C  0.68798621  0.55480897  0.40679638     0.85300
C1778       C  0.71610456  0.55958173  0.41465325    -0.54900
C1779       C  0.73100265  0.54590708  0.38277743     0.08200
C1780       C  0.71574161  0.52911309  0.34680600     0.19200
C1781       C  0.68306754  0.55999212  0.34863947    -0.55700
C1782       C  0.69800199  0.54621833  0.31623217     0.08300
C1783       C  0.68502339  0.52670442  0.41235204    -0.55200
C1784       C  0.69952582  0.51291391  0.38118417     0.08900
H1785       H  0.72334633  0.57222522  0.44345954     0.13400
H1786       H  0.72692132  0.51769605  0.32405076    -0.00900
H1787       H  0.66905703  0.57279858  0.33492509     0.13700
H1788       H  0.67211820  0.51861845  0.43941039     0.13500
C1789       C  0.80211298  0.55480128  0.40670923     0.85300
C1790       C  0.80507265  0.52669303  0.41226520    -0.54900
C1791       C  0.79057213  0.51290151  0.38109356     0.09800
C1792       C  0.77436043  0.52910486  0.34673472     0.19200
C1793       C  0.80705500  0.55997598  0.34855816    -0.55700
C1794       C  0.79212773  0.54619350  0.31615314     0.08300
C1795       C  0.77399983  0.55958197  0.41455519    -0.55200
C1796       C  0.75910128  0.54590590  0.38272319     0.08900
H1797       H  0.81798673  0.51860525  0.43928709     0.13400
H1798       H  0.76317325  0.51768832  0.32399748    -0.00900
H1799       H  0.82108391  0.57276717  0.33484601     0.13700
H1800       H  0.76675479  0.57222859  0.44335363     0.13500
C1801       C  0.80211514  0.94311813  0.40636985     0.85300
C1802       C  0.77399754  0.93834485  0.41424247    -0.54900
C1803       C  0.75909327  0.95205539  0.38249920     0.08200
C1804       C  0.77434701  0.96887880  0.34658500     0.19200
C1805       C  0.80701761  0.93798923  0.34818803    -0.55700
C1806       C  0.79207599  0.95179767  0.31589535     0.08300
C1807       C  0.80508889  0.97122037  0.41208672    -0.55200
C1808       C  0.79057945  0.98504447  0.38100648     0.08900
H1809       H  0.76675485  0.92567326  0.44297725     0.13400
H1810       H  0.76316455  0.98031904  0.32390785    -0.00900
H1811       H  0.82101908  0.92518998  0.33437661     0.13700
H1812       H  0.81800127  0.97927476  0.43917730     0.13500
C1813       C  0.68797926  0.94313592  0.40650874     0.85300
C1814       C  0.68503534  0.97123658  0.41227964    -0.54900
C1815       C  0.69953017  0.98505978  0.38114804     0.08200
C1816       C  0.71573684  0.96889571  0.34667165     0.19200
C1817       C  0.68304801  0.93803040  0.34833112    -0.55700
C1818       C  0.69797665  0.95184153  0.31601314     0.08300
C1819       C  0.71609525  0.93834495  0.41431881    -0.55200
C1820       C  0.73099519  0.95205640  0.38253739     0.08900
H1821       H  0.67215370  0.97928691  0.43944633     0.13400
H1822       H  0.72691518  0.98033107  0.32396135    -0.00900
H1823       H  0.66902263  0.92525171  0.33454180     0.13700
H1824       H  0.72333670  0.92566687  0.44303661     0.13500
C1825       C  0.80078910  0.94194526  0.16665667     0.85300
C1826       C  0.80561567  0.97004866  0.15885129    -0.54900
C1827       C  0.79194771  0.98495534  0.19072040     0.08200
C1828       C  0.77511113  0.96971483  0.22662925     0.19200
C1829       C  0.80594461  0.93700002  0.22480012    -0.55700
C1830       C  0.79218237  0.95194258  0.25719548     0.08300
C1831       C  0.77267916  0.93903102  0.16101178    -0.55200
C1832       C  0.75889712  0.95353546  0.19218966     0.08900
H1833       H  0.81828704  0.97727370  0.13008702     0.13400
H1834       H  0.76370166  0.98090262  0.24938498    -0.00900
H1835       H  0.81872653  0.92296737  0.23851332     0.13700
H1836       H  0.76458609  0.92616049  0.13387883     0.13500
C1837       C  0.68910010  0.94205002  0.16680235     0.85300
C1838       C  0.71720396  0.93908540  0.16104743    -0.54900
C1839       C  0.73103963  0.95356139  0.19220674     0.08200
C1840       C  0.71488500  0.96977206  0.22669155     0.19200
C1841       C  0.68398388  0.93712011  0.22496723    -0.55700
C1842       C  0.69780516  0.95202694  0.25731349     0.08300
C1843       C  0.68433845  0.97016721  0.15900134    -0.55200
C1844       C  0.69806765  0.98504930  0.19081803     0.08900
H1845       H  0.72524616  0.92620851  0.13385939     0.13400
H1846       H  0.72632967  0.98093507  0.24942706    -0.00900
H1847       H  0.67118951  0.92310656  0.23872964     0.13700
H1848       H  0.67167515  0.97741918  0.13026094     0.13500
C1849       C  0.68924718  0.55617110  0.16700495     0.85300
C1850       C  0.68444305  0.52806423  0.15911183    -0.54900
C1851       C  0.69812023  0.51314456  0.19087414     0.08200
C1852       C  0.71495577  0.52837555  0.22683626     0.19200
C1853       C  0.68409885  0.56107759  0.22518830    -0.55700
C1854       C  0.69788000  0.54612131  0.25751257     0.08300
C1855       C  0.71736176  0.55911541  0.16136614    -0.55200
C1856       C  0.73116026  0.54459020  0.19246046     0.08900
H1857       H  0.67176932  0.52083665  0.13035078     0.13400
H1858       H  0.72637750  0.51717905  0.24952636    -0.00900
H1859       H  0.67130625  0.57508927  0.23897898     0.13700
H1860       H  0.72544663  0.57202786  0.13433264     0.13500
C1861       C  0.80096708  0.55603706  0.16690610     0.85300
C1862       C  0.77285518  0.55904139  0.16130667    -0.54900
C1863       C  0.75902649  0.54455467  0.19242835     0.08200
C1864       C  0.77519718  0.52831663  0.22679115     0.19200
C1865       C  0.80612764  0.56095603  0.22508238    -0.55700
C1866       C  0.79230328  0.54604408  0.25743526     0.08300
C1867       C  0.80570638  0.52792348  0.15904287    -0.55200
C1868       C  0.79199130  0.51304483  0.19082033     0.08900
H1869       H  0.76479223  0.57197607  0.13430334     0.13400
H1870       H  0.76375389  0.51714538  0.24948821    -0.00900
H1871       H  0.81894082  0.57495574  0.23884661     0.13700
H1872       H  0.81835617  0.52066254  0.13026751     0.13500
C1873       C  0.93861564  0.69135776  0.40644857     0.85300
C1874       C  0.93389655  0.71947560  0.41435494    -0.54900
C1875       C  0.94760524  0.73435591  0.38256389     0.08200
C1876       C  0.96438011  0.71907907  0.34656023     0.19200
C1877       C  0.93342477  0.68646230  0.34827501    -0.55700
C1878       C  0.94724093  0.70137996  0.31591751     0.08300
C1879       C  0.96672355  0.68833198  0.41200033    -0.55200
C1880       C  0.98055129  0.70281727  0.38088929     0.08900
H1881       H  0.92125815  0.72673703  0.44315156     0.13400
H1882       H  0.97582989  0.73024788  0.32385403    -0.00900
H1883       H  0.92058960  0.67248178  0.33451477     0.13700
H1884       H  0.97478708  0.67538562  0.43898040     0.13500
C1885       C  0.93882813  0.80546805  0.40670538     0.85300
C1886       C  0.96694142  0.80835454  0.41238718    -0.54900
C1887       C  0.98071879  0.79384095  0.38120642     0.08200
C1888       C  0.96449863  0.77768226  0.34674844     0.19200
C1889       C  0.93369777  0.81042549  0.34855953    -0.55700
C1890       C  0.94745908  0.79548116  0.31617261     0.08300
C1891       C  0.93397837  0.77736584  0.41449961    -0.55200
C1892       C  0.94764618  0.76244935  0.38264341     0.08900
H1893       H  0.97503760  0.82121488  0.43953555     0.13400
H1894       H  0.97590377  0.76648589  0.32398879    -0.00900
H1895       H  0.92094107  0.82447914  0.33483851     0.13700
H1896       H  0.92130028  0.77014824  0.44325938     0.13500
C1897       C  0.55033076  0.69114527  0.40628757     0.85300
C1898       C  0.52221261  0.68822468  0.41195870    -0.54900
C1899       C  0.50841737  0.70276032  0.38086593     0.08200
C1900       C  0.52462633  0.71895941  0.34648386     0.19200
C1901       C  0.55545325  0.68622856  0.34809779    -0.55700
C1902       C  0.54166846  0.70118844  0.31578763     0.08300
C1903       C  0.55515746  0.71924601  0.41417488    -0.55200
C1904       C  0.54147780  0.73417596  0.38244752     0.08900
H1905       H  0.51412612  0.67531935  0.43900332     0.13400
H1906       H  0.51320753  0.73016864  0.32380080    -0.00900
H1907       H  0.56822015  0.67219653  0.33429329     0.13700
H1908       H  0.56783741  0.72646477  0.44293365     0.13500
C1909       C  0.55051695  0.80526312  0.40662101     0.85300
C1910       C  0.55525190  0.77714074  0.41443559    -0.54900
C1911       C  0.54152380  0.76227021  0.38258717     0.08200
C1912       C  0.52472499  0.77756137  0.34671203     0.19200
C1913       C  0.55566105  0.81017900  0.34846179    -0.55700
C1914       C  0.54183979  0.79527680  0.31610530     0.08300
C1915       C  0.52241706  0.80825679  0.41233763    -0.55200
C1916       C  0.50857651  0.79379050  0.38118200     0.08900
H1917       H  0.56790866  0.76987971  0.44317908     0.13400
H1918       H  0.51327093  0.76640813  0.32396400    -0.00900
H1919       H  0.56848234  0.82417036  0.33471030     0.13700
H1920       H  0.51437828  0.82114603  0.43950496     0.13500
C1921       C  0.93732482  0.69272374  0.16663744     0.85300
C1922       C  0.96542680  0.68787884  0.15875922    -0.54900
C1923       C  0.98036594  0.70150818  0.19059568     0.08200
C1924       C  0.96515476  0.71833691  0.22660837     0.19200
C1925       C  0.93238941  0.68754034  0.22479136    -0.55700
C1926       C  0.94736444  0.70127461  0.25719518     0.08300
C1927       C  0.93442674  0.72083856  0.16112285    -0.55200
C1928       C  0.94897395  0.73458731  0.19227586     0.08900
H1929       H  0.97263588  0.67521885  0.12994713     0.13400
H1930       H  0.97637426  0.72972513  0.24935096    -0.00900
H1931       H  0.91834222  0.67476989  0.23850634     0.13700
H1932       H  0.92152172  0.72896433  0.13413022     0.13500
C1933       C  0.93762748  0.80440659  0.16698856     0.85300
C1934       C  0.93459036  0.77631160  0.16123582    -0.54900
C1935       C  0.94905152  0.76244435  0.19233788     0.08200
C1936       C  0.96531325  0.77856228  0.22678931     0.19200
C1937       C  0.93271573  0.80952632  0.22517339    -0.55700
C1938       C  0.94760916  0.79566845  0.25747306     0.08300
C1939       C  0.96575641  0.80911472  0.15916386    -0.55200
C1940       C  0.98061677  0.79535854  0.19090925     0.08900
H1941       H  0.92166812  0.76829594  0.13411702     0.13400
H1942       H  0.97646761  0.76709055  0.24947545    -0.00900
H1943       H  0.91873394  0.82234803  0.23898020     0.13700
H1944       H  0.97303739  0.82177437  0.13044838     0.13500
C1945       C  0.55175109  0.80410555  0.16692383     0.85300
C1946       C  0.52364707  0.80896205  0.15911088    -0.54900
C1947       C  0.50871292  0.79528215  0.19087689     0.08200
C1948       C  0.52392764  0.77840310  0.22673317     0.19200
C1949       C  0.55668625  0.80919777  0.22510367    -0.55700
C1950       C  0.54171578  0.79542390  0.25740714     0.08300
C1951       C  0.55463306  0.77599986  0.16113838    -0.55200
C1952       C  0.54009867  0.76220595  0.19224383     0.08900
H1953       H  0.51643692  0.82166385  0.13040524     0.13400
H1954       H  0.51271741  0.76698719  0.24943601    -0.00900
H1955       H  0.57072893  0.82195458  0.23890508     0.13700
H1956       H  0.56749526  0.76792412  0.13396252     0.13500
C1957       C  0.55145486  0.69243009  0.16648841     0.85300
C1958       C  0.55447467  0.72053081  0.16093221    -0.54900
C1959       C  0.54001688  0.73435163  0.19213511     0.08200
C1960       C  0.52377274  0.71818554  0.22651401     0.19200
C1961       C  0.55637978  0.68723966  0.22464091    -0.55700
C1962       C  0.54149108  0.70105161  0.25706732     0.08300
C1963       C  0.52332540  0.68771941  0.15865580    -0.55200
C1964       C  0.50846527  0.70142824  0.19054571     0.08900
H1965       H  0.56739152  0.72859124  0.13386673     0.13400
H1966       H  0.51262016  0.72962508  0.24928898    -0.00900
H1967       H  0.57037561  0.67441316  0.23833829     0.13700
H1968       H  0.51604949  0.67509828  0.12984411     0.13500
C1969       C  0.68767967  0.94267449  0.66675378     0.85300
C1970       C  0.71579303  0.93789636  0.65888965    -0.54900
C1971       C  0.73069743  0.95157488  0.69071157     0.08200
C1972       C  0.71544371  0.96837796  0.72671064     0.19200
C1973       C  0.68275111  0.93750862  0.72492214    -0.55700
C1974       C  0.69768123  0.95129647  0.75731767     0.08300
C1975       C  0.68472241  0.97078394  0.66119018    -0.55200
C1976       C  0.69922770  0.98457864  0.69235576     0.08900
H1977       H  0.72303416  0.92525151  0.63008341     0.13400
H1978       H  0.72663224  0.97979492  0.74944612    -0.00900
H1979       H  0.66872390  0.92472030  0.73865224     0.13700
H1980       H  0.67180688  0.97886908  0.63416680     0.13500
C1981       C  0.80181328  0.94268428  0.66659956     0.85300
C1982       C  0.80477199  0.97078933  0.66103512    -0.54900
C1983       C  0.79027116  0.98457752  0.69221487     0.08200
C1984       C  0.77406092  0.96837644  0.72659445     0.19200
C1985       C  0.80674049  0.93750406  0.72474997    -0.55700
C1986       C  0.79180747  0.95127610  0.75715851     0.08300
C1987       C  0.77369427  0.93790685  0.65875413    -0.55200
C1988       C  0.75879740  0.95157996  0.69063400     0.08900
H1989       H  0.81767444  0.97887543  0.63397126     0.13400
H1990       H  0.76288195  0.97979191  0.74934908    -0.00900
H1991       H  0.82075586  0.92470172  0.73845910     0.13700
H1992       H  0.76645084  0.92526066  0.62995493     0.13500
C1993       C  0.68768420  0.55436200  0.66707197     0.85300
C1994       C  0.68471350  0.52625942  0.66136277    -0.54900
C1995       C  0.69922120  0.51243696  0.69244777     0.08200
C1996       C  0.71545343  0.52860535  0.72687121     0.19200
C1997       C  0.68278394  0.55949515  0.72525838    -0.55700
C1998       C  0.69772698  0.54569021  0.75755957     0.08300
C1999       C  0.71580119  0.55913574  0.65920069    -0.55200
C2000       C  0.73070560  0.54542879  0.69095316     0.08900
H2001       H  0.67180668  0.51820243  0.63426254     0.13400
H2002       H  0.72663608  0.51716631  0.74955537    -0.00900
H2003       H  0.66878560  0.57229845  0.73906656     0.13700
H2004       H  0.72304293  0.57180579  0.63046174     0.13500
C2005       C  0.80181259  0.55435443  0.66693841     0.85300
C2006       C  0.77369724  0.55914807  0.65914281    -0.54900
C2007       C  0.75880233  0.54543261  0.69091997     0.08200
C2008       C  0.77406576  0.52859275  0.72677297     0.19200
C2009       C  0.80675646  0.55946109  0.72510096    -0.55700
C2010       C  0.79183175  0.54565069  0.75741975     0.08300
C2011       C  0.80475899  0.52625567  0.66115564    -0.55200
C2012       C  0.79026786  0.51243070  0.69228090     0.08900
H2013       H  0.76645269  0.57182905  0.63043395     0.13400
H2014       H  0.76288816  0.51715495  0.74947764    -0.00900
H2015       H  0.82078368  0.57224051  0.73888029     0.13700
H2016       H  0.81763884  0.51820661  0.63398393     0.13500
C2017       C  0.68886351  0.94146400  0.90660120     0.85300
C2018       C  0.68413055  0.96958060  0.91448330    -0.54900
C2019       C  0.69783486  0.98446434  0.88268623     0.08200
C2020       C  0.71461805  0.96919132  0.84668320     0.19200
C2021       C  0.68369137  0.93655232  0.84842124    -0.55700
C2022       C  0.69750811  0.95146210  0.81604901     0.08300
C2023       C  0.71697752  0.93846159  0.91216720    -0.55200
C2024       C  0.73079823  0.95295077  0.88102353     0.08900
H2025       H  0.67149347  0.97684033  0.94328413     0.13400
H2026       H  0.72605486  0.98036158  0.82396524    -0.00900
H2027       H  0.67087887  0.92255002  0.83466705     0.13700
H2028       H  0.72504570  0.92552563  0.93916073     0.13500
C2029       C  0.80058273  0.94134005  0.90637078     0.85300
C2030       C  0.77246972  0.93839315  0.91202470    -0.54900
C2031       C  0.75866496  0.95291441  0.88094318     0.08200
C2032       C  0.77486326  0.96912591  0.84654773     0.19200
C2033       C  0.80572536  0.93642382  0.84819117    -0.55700
C2034       C  0.79193761  0.95137705  0.81587120     0.08300
C2035       C  0.80538996  0.96944410  0.91424213    -0.55200
C2036       C  0.79170516  0.98435772  0.88249171     0.08900
H2037       H  0.76438864  0.92548211  0.93906537     0.13400
H2038       H  0.76343604  0.98032238  0.82386732    -0.00900
H2039       H  0.81851747  0.92241142  0.83440057     0.13700
H2040       H  0.81806990  0.97667435  0.94298839     0.13500
C2041       C  0.80072615  0.55543509  0.90661230     0.85300
C2042       C  0.80548880  0.52731969  0.91438352    -0.54900
C2043       C  0.79175308  0.51244751  0.88256869     0.08200
C2044       C  0.77492991  0.52772943  0.84672515     0.19200
C2045       C  0.80583860  0.56037714  0.84845121    -0.55700
C2046       C  0.79200984  0.54547308  0.81610843     0.08300
C2047       C  0.77262492  0.55840642  0.91237937    -0.55200
C2048       C  0.75878342  0.54394040  0.88122295     0.08900
H2049       H  0.81816085  0.52006218  0.94310118     0.13400
H2050       H  0.76347930  0.51656853  0.82400283    -0.00900
H2051       H  0.81863522  0.57438935  0.83469099     0.13700
H2052       H  0.76458686  0.57128261  0.93957332     0.13500
C2053       C  0.68904125  0.55558463  0.90681032     0.85300
C2054       C  0.71715246  0.55849757  0.91242861    -0.54900
C2055       C  0.73092698  0.54398043  0.88125476     0.08200
C2056       C  0.71470620  0.52779453  0.84684330     0.19200
C2057       C  0.68387699  0.56051075  0.84866001    -0.55700
C2058       C  0.69763111  0.54555911  0.81626752     0.08300
C2059       C  0.68421921  0.52747827  0.91465534    -0.55200
C2060       C  0.69787889  0.51256010  0.88278322     0.08900
H2061       H  0.72525047  0.57137478  0.93954135     0.13400
H2062       H  0.72611013  0.51660323  0.82408513    -0.00900
H2063       H  0.67109396  0.57454043  0.83493921     0.13700
H2064       H  0.67155619  0.52025951  0.94344221     0.13500
In2065     In  0.64735719  0.56270091  0.53682203     1.36900
C2066       C  0.64418485  0.51245396  0.53648756     0.76400
O2067       O  0.64863553  0.56028758  0.44987013    -0.62100
O2068       O  0.68017350  0.57406051  0.48913358    -0.53000
C2069       C  0.61191108  0.59663708  0.53691467     0.69100
O2070       O  0.60715041  0.57378465  0.53628427    -0.47800
C2071       C  0.67112285  0.56531471  0.62627414     0.73800
O2072       O  0.62510183  0.52603029  0.53632220    -0.59700
O2073       O  0.67995106  0.57401790  0.58513822    -0.49800
O2074       O  0.66412945  0.52447873  0.53679478    -0.56100
C2075       C  0.67139562  0.56567224  0.44766550     0.83900
O2076       O  0.63459878  0.60200287  0.53754709    -0.58000
O2077       O  0.64839521  0.55981062  0.62371241    -0.61300
In2078     In  0.55866985  0.65101275  0.53676019     1.36900
C2079       C  0.50843876  0.64790396  0.53723808     0.76400
O2080       O  0.55601678  0.65242424  0.62363777    -0.62100
O2081       O  0.56987513  0.68391468  0.58432307    -0.53000
C2082       C  0.59275130  0.61570800  0.53687945     0.69100
O2083       O  0.56991224  0.61085151  0.53618441    -0.47800
C2084       C  0.56127750  0.67460358  0.44713151     0.73800
O2085       O  0.52198233  0.62879954  0.53820436    -0.59700
O2086       O  0.57007483  0.68345799  0.48816694    -0.49800
O2087       O  0.52049186  0.66782041  0.53612745    -0.56100
C2088       C  0.56139464  0.67518710  0.62575430     0.83900
O2089       O  0.59802363  0.63841213  0.53751580    -0.58000
O2090       O  0.55570224  0.65190433  0.44985811    -0.61300
In2091     In  0.93066388  0.65123045  0.53695362     1.36900
C2092       C  0.98089980  0.64796205  0.53728514     0.76400
O2093       O  0.93316716  0.65212737  0.44996734    -0.62100
O2094       O  0.91917662  0.68373830  0.48862843    -0.53000
C2095       C  0.89675469  0.61583248  0.53729102     0.69100
O2096       O  0.91959411  0.61106129  0.53558943    -0.47800
C2097       C  0.92790470  0.67540203  0.62591022     0.73800
O2098       O  0.96728563  0.62891776  0.53847743    -0.59700
O2099       O  0.91950022  0.68415353  0.58444496    -0.49800
O2100       O  0.96891718  0.66791834  0.53605057    -0.56100
C2101       C  0.92769860  0.67485194  0.44738024     0.83900
O2102       O  0.89139433  0.63850380  0.53886300    -0.58000
O2103       O  0.93323024  0.65262509  0.62382697    -0.61300
In2104     In  0.84237793  0.56270532  0.53706112     1.36900
C2105       C  0.84557183  0.51249079  0.53705967     0.76400
O2106       O  0.84115459  0.55990679  0.62390535    -0.62100
O2107       O  0.80959773  0.57387063  0.58492086    -0.53000
C2108       C  0.87768493  0.59670460  0.53733849     0.69100
O2109       O  0.88252707  0.57388010  0.53574402    -0.47800
C2110       C  0.81864259  0.56568476  0.44763525     0.73800
O2111       O  0.86465293  0.52606946  0.53779360    -0.59700
O2112       O  0.80978387  0.57416660  0.48894769    -0.49800
O2113       O  0.82562223  0.52449989  0.53640371    -0.56100
C2114       C  0.81839375  0.56530246  0.62620454     0.83900
O2115       O  0.85499442  0.60199829  0.53888793    -0.58000
O2116       O  0.84137739  0.56023260  0.45010651    -0.61300
In2117     In  0.93082665  0.84625366  0.53644256     1.36900
C2118       C  0.98107159  0.84937112  0.53597191     0.76400
O2119       O  0.93364723  0.84535936  0.62335685    -0.62100
O2120       O  0.91936677  0.81379686  0.58493231    -0.53000
C2121       C  0.89687143  0.88163959  0.53639535     0.69100
O2122       O  0.91972138  0.88643545  0.53705293    -0.47800
C2123       C  0.92796316  0.82209556  0.44747332     0.73800
O2124       O  0.96751681  0.86846289  0.53498151    -0.59700
O2125       O  0.91954586  0.81336350  0.48895082    -0.49800
O2126       O  0.96902451  0.82944964  0.53710096    -0.56100
C2127       C  0.92808055  0.82265720  0.62603491     0.83900
O2128       O  0.89152602  0.85895366  0.53573386    -0.58000
O2129       O  0.93334375  0.84485771  0.44955581    -0.61300
In2130     In  0.84241975  0.93474174  0.53659501     1.36900
C2131       C  0.84558231  0.98496038  0.53695083     0.76400
O2132       O  0.84140092  0.93765603  0.44971908    -0.62100
O2133       O  0.80983711  0.92344409  0.48827432    -0.53000
C2134       C  0.87777395  0.90075434  0.53643355     0.69100
O2135       O  0.88259776  0.92359459  0.53701611    -0.47800
C2136       C  0.81839977  0.93181236  0.62574340     0.73800
O2137       O  0.86467546  0.97139691  0.53716525    -0.59700
O2138       O  0.80961555  0.92340689  0.58429615    -0.49800
O2139       O  0.82563931  0.97293515  0.53657840    -0.56100
C2140       C  0.81867198  0.93215665  0.44715326     0.83900
O2141       O  0.85507630  0.89543498  0.53591292    -0.58000
O2142       O  0.84116171  0.93719161  0.62353231    -0.61300
In2143     In  0.64735482  0.93467063  0.53640142     1.36900
C2144       C  0.64417947  0.98491214  0.53639854     0.76400
O2145       O  0.64840103  0.93724276  0.62335947    -0.62100
O2146       O  0.67996622  0.92322662  0.58456569    -0.53000
C2147       C  0.61199032  0.90062206  0.53604225     0.69100
O2148       O  0.60717698  0.92345347  0.53767250    -0.47800
C2149       C  0.67138188  0.93217590  0.44723724     0.73800
O2150       O  0.62509379  0.97133511  0.53571353    -0.59700
O2151       O  0.68015473  0.92353455  0.48848056    -0.49800
O2152       O  0.66412035  0.97288895  0.53702190    -0.56100
C2153       C  0.67113188  0.93177483  0.62584507     0.83900
O2154       O  0.63468594  0.89533564  0.53452576    -0.58000
O2155       O  0.64862591  0.93759030  0.44956121    -0.61300
In2156     In  0.55886020  0.84609610  0.53627418     1.36900
C2157       C  0.50861482  0.84933932  0.53593078     0.76400
O2158       O  0.55613949  0.84465531  0.44942508    -0.62100
O2159       O  0.56996581  0.81314828  0.48873513    -0.53000
C2160       C  0.59287914  0.88148983  0.53601105     0.69100
O2161       O  0.57003965  0.88627417  0.53768188    -0.47800
C2162       C  0.56166158  0.82244876  0.62586071     0.73800
O2163       O  0.52221950  0.86839448  0.53470547    -0.59700
O2164       O  0.57029495  0.81358115  0.58469007    -0.49800
O2165       O  0.52061173  0.82939374  0.53720273    -0.56100
C2166       C  0.56146812  0.82187895  0.44732855     0.83900
O2167       O  0.59819177  0.85880511  0.53440061    -0.58000
O2168       O  0.55617333  0.84516759  0.62323098    -0.61300
In2169     In  0.89731639  0.81290376  0.03676469     1.36900
C2170       C  0.89403617  0.76268516  0.03640442     0.76400
O2171       O  0.89853045  0.81045709  0.94982448    -0.62100
O2172       O  0.93010379  0.82423254  0.98896619    -0.53000
C2173       C  0.86191480  0.84684926  0.03694839     0.69100
O2174       O  0.85713344  0.82400280  0.03634304    -0.47800
C2175       C  0.92110566  0.81542252  0.12619702     0.73800
O2176       O  0.87498088  0.77629815  0.03619851    -0.59700
O2177       O  0.92996236  0.82409593  0.08505794    -0.49800
O2178       O  0.91400878  0.77466266  0.03676324    -0.56100
C2179       C  0.92129400  0.81581464  0.94755184     0.83900
O2180       O  0.88460522  0.85220844  0.03751878    -0.58000
O2181       O  0.89835725  0.81000720  0.12364930    -0.61300
In2182     In  0.80873365  0.90122239  0.03684832     1.36900
C2183       C  0.75847887  0.89807549  0.03733239     0.76400
O2184       O  0.80627571  0.90257485  0.12374434    -0.62100
O2185       O  0.82000569  0.93409994  0.08434712    -0.53000
C2186       C  0.84277146  0.86591948  0.03694345     0.69100
O2187       O  0.81993157  0.86106822  0.03625179    -0.47800
C2188       C  0.81150250  0.92481908  0.94725820     0.73800
O2189       O  0.77204916  0.87899394  0.03829030    -0.59700
O2190       O  0.82014747  0.93370056  0.98840331    -0.49800
O2191       O  0.77051364  0.91800542  0.03622870    -0.56100
C2192       C  0.81164174  0.92534029  0.12584585     0.83900
O2193       O  0.84806209  0.88861711  0.03759032    -0.58000
O2194       O  0.80598030  0.90210467  0.94991417    -0.61300
In2195     In  0.80898376  0.59614584  0.03638553     1.36900
C2196       C  0.75875048  0.59938892  0.03608406     0.76400
O2197       O  0.80632563  0.59479158  0.94952767    -0.62100
O2198       O  0.82015825  0.56326121  0.98874452    -0.53000
C2199       C  0.84281029  0.63163501  0.03606304     0.69100
O2200       O  0.81995856  0.63633695  0.03777159    -0.47800
C2201       C  0.81190711  0.57253483  0.12598121     0.73800
O2202       O  0.77236053  0.61843576  0.03490397    -0.59700
O2203       O  0.82047883  0.56364751  0.08477323    -0.49800
O2204       O  0.77073796  0.57943384  0.03730229    -0.56100
C2205       C  0.81167467  0.57202405  0.94735445     0.83900
O2206       O  0.84823551  0.60897622  0.03448381    -0.58000
O2207       O  0.80642936  0.59525431  0.12335661    -0.61300
In2208     In  0.89704132  0.68492391  0.03626463     1.36900
C2209       C  0.89397045  0.73515126  0.03629922     0.76400
O2210       O  0.89804288  0.68738646  0.12322914    -0.62100
O2211       O  0.92961856  0.67342779  0.08435237    -0.53000
C2212       C  0.86181950  0.65082852  0.03600788     0.69100
O2213       O  0.85691141  0.67364232  0.03762478    -0.47800
C2214       C  0.92098153  0.68231991  0.94707738     0.73800
O2215       O  0.87485200  0.72161971  0.03552437    -0.59700
O2216       O  0.92977467  0.67372505  0.98834040    -0.49800
O2217       O  0.91388872  0.72309021  0.03699114    -0.56100
C2218       C  0.92077060  0.68189605  0.12568835     0.83900
O2219       O  0.88452334  0.64560353  0.03442256    -0.58000
O2220       O  0.89823263  0.68776751  0.94941708    -0.61300
In2221     In  0.59231807  0.81253699  0.03696031     1.36900
C2222       C  0.59537670  0.76228682  0.03690727     0.76400
O2223       O  0.59109947  0.80955773  0.12379420    -0.62100
O2224       O  0.55958653  0.82372987  0.08498979    -0.53000
C2225       C  0.62764051  0.84663733  0.03728238     0.69100
O2226       O  0.63248905  0.82381121  0.03561071    -0.47800
C2227       C  0.56853330  0.81547853  0.94753592     0.73800
O2228       O  0.61449476  0.77582187  0.03762388    -0.59700
O2229       O  0.55970690  0.82400510  0.98884419    -0.49800
O2230       O  0.57546217  0.77435464  0.03627681    -0.56100
C2231       C  0.56835996  0.81503690  0.12618664     0.83900
O2232       O  0.60493779  0.85188440  0.03885503    -0.58000
O2233       O  0.59126005  0.80998726  0.94999960    -0.61300
In2234     In  0.68068486  0.90127061  0.03708533     1.36900
C2235       C  0.73093265  0.89808333  0.03738541     0.76400
O2236       O  0.68340392  0.90222683  0.95013491    -0.62100
O2237       O  0.66925372  0.93380159  0.98866836    -0.53000
C2238       C  0.64671721  0.86581039  0.03730993     0.69100
O2239       O  0.66956487  0.86107199  0.03559815    -0.47800
C2240       C  0.67813347  0.92543285  0.12610547     0.73800
O2241       O  0.71734632  0.87901449  0.03862102    -0.59700
O2242       O  0.66953713  0.93416183  0.08478224    -0.49800
O2243       O  0.71891482  0.91801722  0.03612135    -0.56100
C2244       C  0.67791264  0.92494428  0.94750714     0.83900
O2245       O  0.64136507  0.88848688  0.03896967    -0.58000
O2246       O  0.68351287  0.90267130  0.12391976    -0.61300
In2247     In  0.59206255  0.68449489  0.03645267     1.36900
C2248       C  0.59531167  0.73474353  0.03680126     0.76400
O2249       O  0.59099139  0.68738055  0.94956778    -0.62100
O2250       O  0.55941777  0.67323822  0.98817535    -0.53000
C2251       C  0.62759848  0.65063095  0.03635936     0.69100
O2252       O  0.63229746  0.67349349  0.03704962    -0.47800
C2253       C  0.56802479  0.68153069  0.12562099     0.73800
O2254       O  0.61436684  0.72113232  0.03693923    -0.59700
O2255       O  0.55923975  0.67312953  0.08417103    -0.49800
O2256       O  0.57534662  0.72275254  0.03651091    -0.56100
C2257       C  0.56825029  0.68193258  0.94703501     0.83900
O2258       O  0.60492187  0.64521182  0.03563617    -0.58000
O2259       O  0.59078702  0.68689733  0.12339694    -0.61300
In2260     In  0.68096413  0.59635865  0.03658981     1.36900
C2261       C  0.73120955  0.59945020  0.03612471     0.76400
O2262       O  0.68384593  0.59542824  0.12350690    -0.62100
O2263       O  0.66959541  0.56386101  0.08504760    -0.53000
C2264       C  0.64681262  0.63160768  0.03643752     0.69100
O2265       O  0.66964350  0.63651274  0.03718985    -0.47800
C2266       C  0.67817971  0.57221505  0.94759114     0.73800
O2267       O  0.71766913  0.61855805  0.03521068    -0.59700
O2268       O  0.66971891  0.56348245  0.98903231    -0.49800
O2269       O  0.71914950  0.57953756  0.03717269    -0.56100
C2270       C  0.67831392  0.57271473  0.12615330     0.83900
O2271       O  0.64159402  0.60889317  0.03578816    -0.58000
O2272       O  0.68357843  0.59497411  0.94971287    -0.61300
C2273       C  0.55050808  0.69181651  0.66652052     0.85300
C2274       C  0.55534639  0.71992078  0.65871040    -0.54900
C2275       C  0.54167814  0.73483889  0.69056501     0.08200
C2276       C  0.52483144  0.71960687  0.72646905     0.19200
C2277       C  0.55563857  0.68687354  0.72467975    -0.55700
C2278       C  0.54187300  0.70182129  0.75705979     0.08300
C2279       C  0.52239508  0.68892097  0.66084856    -0.55200
C2280       C  0.50861567  0.70343741  0.69203032     0.08900
H2281       H  0.56802210  0.72713887  0.62994730     0.13400
H2282       H  0.51342386  0.73080541  0.74922824    -0.00900
H2283       H  0.56840017  0.67282740  0.73841354     0.13700
H2284       H  0.51430336  0.67605448  0.63370661     0.13500
C2285       C  0.55071456  0.80593351  0.66676570     0.85300
C2286       C  0.52260484  0.80895507  0.66120354    -0.54900
C2287       C  0.50877518  0.79446789  0.69232230     0.08200
C2288       C  0.52494600  0.77821150  0.72665959     0.19200
C2289       C  0.55589687  0.81082989  0.72494410    -0.55700
C2290       C  0.54207775  0.79591792  0.75730545     0.08300
C2291       C  0.55543200  0.77781502  0.65886273    -0.55200
C2292       C  0.54172199  0.76293399  0.69065363     0.08900
H2293       H  0.51454456  0.82189914  0.63421546     0.13400
H2294       H  0.51349518  0.76704094  0.74937760    -0.00900
H2295       H  0.56872686  0.82481459  0.73870575     0.13700
H2296       H  0.56806826  0.77055298  0.63006308     0.13500
C2297       C  0.93899804  0.80612017  0.66690066     0.85300
C2298       C  0.93417117  0.77801877  0.65903182    -0.54900
C2299       C  0.94784810  0.76309631  0.69077950     0.08200
C2300       C  0.96469478  0.77832133  0.72673803     0.19200
C2301       C  0.93386335  0.81105005  0.72507639    -0.55700
C2302       C  0.94764392  0.79609804  0.75740621     0.08300
C2303       C  0.96711572  0.80904181  0.66124610    -0.55200
C2304       C  0.98090818  0.79451529  0.69234981     0.08900
H2305       H  0.92149496  0.77079521  0.63027062     0.13400
H2306       H  0.97611494  0.76711518  0.74943662    -0.00900
H2307       H  0.92109417  0.82508538  0.73885811     0.13700
H2308       H  0.97520690  0.82194395  0.63420212     0.13500
C2309       C  0.93882408  0.69200751  0.66664860     0.85300
C2310       C  0.96692241  0.68901443  0.66094100    -0.54900
C2311       C  0.98075921  0.70348561  0.69207833     0.08200
C2312       C  0.96460821  0.71971870  0.72653684     0.19200
C2313       C  0.93367556  0.68709478  0.72480627    -0.55700
C2314       C  0.94749272  0.70200786  0.75715197     0.08300
C2315       C  0.93408151  0.72012746  0.65882254    -0.55200
C2316       C  0.94780706  0.73500311  0.69065856     0.08900
H2317       H  0.97496587  0.67612143  0.63378667     0.13400
H2318       H  0.97606314  0.73087847  0.74927518    -0.00900
H2319       H  0.92085435  0.67310422  0.73856332     0.13700
H2320       H  0.92142096  0.72738310  0.63008035     0.13500
C2321       C  0.93784623  0.80489731  0.90668337     0.85300
C2322       C  0.96597311  0.80961618  0.91451042    -0.54900
C2323       C  0.98083623  0.79590130  0.88264829     0.08200
C2324       C  0.96553477  0.77913336  0.84669471     0.19200
C2325       C  0.93291917  0.81007086  0.84852621    -0.55700
C2326       C  0.94781348  0.79625288  0.81612102     0.08300
C2327       C  0.93482999  0.77679690  0.91227094    -0.55200
C2328       C  0.94929318  0.76297240  0.88107925     0.08900
H2329       H  0.97324672  0.82224725  0.94330550     0.13400
H2330       H  0.97669372  0.76769052  0.82393547    -0.00900
H2331       H  0.91892057  0.82289022  0.83481194     0.13700
H2332       H  0.92191381  0.76874223  0.93934616     0.13500
C2333       C  0.93757924  0.69322675  0.90632405     0.85300
C2334       C  0.93469047  0.72133050  0.91208698    -0.54900
C2335       C  0.94922132  0.73511940  0.88097775     0.08200
C2336       C  0.96539669  0.71891743  0.84650090     0.19200
C2337       C  0.93264038  0.68811766  0.84815792    -0.55700
C2338       C  0.94761079  0.70188365  0.81584428     0.08300
C2339       C  0.96568362  0.68837250  0.91414219    -0.55200
C2340       C  0.98061601  0.70204716  0.88236839     0.08900
H2341       H  0.92182636  0.72941028  0.93925484     0.13400
H2342       H  0.97660777  0.73033327  0.82379062    -0.00900
H2343       H  0.91859939  0.67535476  0.83437252     0.13700
H2344       H  0.97289521  0.67567496  0.94285486     0.13500
C2345       C  0.55170757  0.69293474  0.90625841     0.85300
C2346       C  0.52357849  0.68822116  0.91409271    -0.54900
C2347       C  0.50871330  0.70197011  0.88233490     0.08200
C2348       C  0.52401382  0.71876405  0.84644280     0.19200
C2349       C  0.55661745  0.68780710  0.84807677    -0.55700
C2350       C  0.54172166  0.70165405  0.81576602     0.08300
C2351       C  0.55473396  0.72103158  0.91199983    -0.55200
C2352       C  0.54026837  0.73489186  0.88089742     0.08900
H2353       H  0.51630192  0.67556662  0.94282315     0.13400
H2354       H  0.51285621  0.73023224  0.82374014    -0.00900
H2355       H  0.57060030  0.67498459  0.83427837     0.13700
H2356       H  0.56764941  0.72905552  0.93912261     0.13500
C2357       C  0.55196967  0.80462474  0.90660406     0.85300
C2358       C  0.55486951  0.77650910  0.91214336    -0.54900
C2359       C  0.54033109  0.76275069  0.88097983     0.08200
C2360       C  0.52415107  0.77899182  0.84663101     0.19200
C2361       C  0.55690586  0.80979374  0.84843794    -0.55700
C2362       C  0.54194026  0.79604666  0.81603506     0.08300
C2363       C  0.52386631  0.80946291  0.91446519    -0.55200
C2364       C  0.50893410  0.79582525  0.88262367     0.08900
H2365       H  0.56777153  0.76839155  0.93915243     0.13400
H2366       H  0.51293539  0.76759735  0.82388100    -0.00900
H2367       H  0.57095205  0.82256300  0.83471504     0.13700
H2368       H  0.51665204  0.82212520  0.94326721     0.13500
loop_ 
_geom_bond_atom_site_label_1 
_geom_bond_atom_site_label_2 
_geom_bond_distance 
_geom_bond_site_symmetry_2 
_ccdc_geom_bond_type 
C1            C2   1.553       .  S
C1            C7   1.532       .  S
C1            C5   1.557       .  S
C1          C299   1.506       .  S
C2            H9   1.084       .  S
C2            C3   1.369       .  D
C3            C4   1.539       .  S
C3           C20   1.516       .  S
C4            C8   1.525       .  S
C4            C6   1.549       .  S
C4           H10   1.045       .  S
C5           H11   1.085       .  S
C5            C6   1.381       .  D
C6           C78   1.523       .  S
C7           H12   1.081       .  S
C7            C8   1.349       .  D
C8          C631   1.504   1_545  S
C13          C14   1.533       .  S
C13          C19   1.552       .  S
C13          C17   1.557       .  S
C13         C334   1.506       .  S
C14          H21   1.081       .  S
C14          C15   1.349       .  D
C15          C16   1.525       .  S
C15         C624   1.504   1_545  S
C16          C20   1.540       .  S
C16          C18   1.549       .  S
C16          H22   1.045       .  S
C17          H23   1.085       .  S
C17          C18   1.381       .  D
C18          C90   1.523       .  S
C19          H24   1.085       .  S
C19          C20   1.368       .  D
C25          C26   1.553       .  S
C25          C31   1.533       .  S
C25          C29   1.556       .  S
C25         C364   1.506       .  S
C26          H33   1.084       .  S
C26          C27   1.369       .  D
C27          C28   1.539       .  S
C27          C44   1.516       .  S
C28          C32   1.525       .  S
C28          C30   1.549       .  S
C28          H34   1.045       .  S
C29          H35   1.085       .  S
C29          C30   1.381       .  D
C30          C54   1.522       .  S
C31          H36   1.081       .  S
C31          C32   1.349       .  D
C32         C607   1.504       .  S
C37          C38   1.532       .  S
C37          C43   1.553       .  S
C37          C41   1.556       .  S
C37         C373   1.506       .  S
C38          H45   1.081       .  S
C38          C39   1.349       .  D
C39          C40   1.525       .  S
C39         C600   1.504       .  S
C40          C44   1.540       .  S
C40          C42   1.548       .  S
C40          H46   1.045       .  S
C41          H47   1.085       .  S
C41          C42   1.381       .  D
C42          C66   1.522       .  S
C43          H48   1.084       .  S
C43          C44   1.369       .  D
C49          C50   1.553       .  S
C49          C55   1.532       .  S
C49          C53   1.556       .  S
C49         C416   1.505       .  S
C50          H57   1.085       .  S
C50          C51   1.369       .  D
C51          C52   1.539       .  S
C51         C684   1.516       .  S
C52          C56   1.525       .  S
C52          C54   1.549       .  S
C52          H58   1.045       .  S
C53          H59   1.085       .  S
C53          C54   1.381       .  D
C55          H60   1.081       .  S
C55          C56   1.349       .  D
C56          C63   1.503       .  S
C61          C62   1.532       .  S
C61          C67   1.553       .  S
C61          C65   1.556       .  S
C61         C464   1.506       .  S
C62          H69   1.081       .  S
C62          C63   1.349       .  D
C63          C64   1.525       .  S
C64          C68   1.540       .  S
C64          C66   1.549       .  S
C64          H70   1.045       .  S
C65          H71   1.085       .  S
C65          C66   1.381       .  D
C67          H72   1.084       .  S
C67          C68   1.369       .  D
C68         C667   1.517       .  S
C73          C74   1.553       .  S
C73          C79   1.533       .  S
C73          C77   1.557       .  S
C73         C494   1.506       .  S
C74          H81   1.084       .  S
C74          C75   1.368       .  D
C75          C76   1.540       .  S
C75         C660   1.517   1_545  S
C76          C80   1.525       .  S
C76          C78   1.549       .  S
C76          H82   1.045       .  S
C77          H83   1.085       .  S
C77          C78   1.381       .  D
C79          H84   1.081       .  S
C79          C80   1.349       .  D
C80          C87   1.504       .  S
C85          C86   1.533       .  S
C85          C91   1.552       .  S
C85          C89   1.557       .  S
C85         C425   1.506       .  S
C86          H93   1.081       .  S
C86          C87   1.349       .  D
C87          C88   1.525       .  S
C88          C92   1.540       .  S
C88          C90   1.549       .  S
C88          H94   1.045       .  S
C89          H95   1.085       .  S
C89          C90   1.382       .  D
C91          H96   1.085       .  S
C91          C92   1.368       .  D
C92         C643   1.516   1_545  S
C97          C98   1.553       .  S
C97         C103   1.533       .  S
C97         C101   1.557       .  S
C97         C325   1.506       .  S
C98         H105   1.085       .  S
C98          C99   1.368       .  D
C99         C100   1.540       .  S
C99         C116   1.516       .  S
C100        C104   1.525       .  S
C100        C102   1.549       .  S
C100        H106   1.045       .  S
C101        H107   1.085       .  S
C101        C102   1.382       .  D
C102        C150   1.523       .  S
C103        H108   1.081       .  S
C103        C104   1.349       .  D
C104       C1307   1.504       .  S
C109        C110   1.532       .  S
C109        C115   1.553       .  S
C109        C113   1.556       .  S
C109        C347   1.505       .  S
C110        H117   1.081       .  S
C110        C111   1.349       .  D
C111        C112   1.525       .  S
C111       C1324   1.503       .  S
C112        C116   1.539       .  S
C112        C114   1.549       .  S
C112        H118   1.045       .  S
C113        H119   1.085       .  S
C113        C114   1.381       .  D
C114        C162   1.522       .  S
C115        H120   1.085       .  S
C115        C116   1.369       .  D
C121        C122   1.533       .  S
C121        C127   1.553       .  S
C121        C125   1.557       .  S
C121        C308   1.506       .  S
C122        H129   1.081       .  S
C122        C123   1.349       .  D
C123        C124   1.525       .  S
C123       C1288   1.504   1_455  S
C124        C128   1.540       .  S
C124        C126   1.549       .  S
C124        H130   1.045       .  S
C125        H131   1.085       .  S
C125        C126   1.381       .  D
C126        C186   1.523       .  S
C127        H132   1.084       .  S
C127        C128   1.368       .  D
C128        C135   1.517       .  S
C133        C134   1.553       .  S
C133        C139   1.532       .  S
C133        C137   1.556       .  S
C133        C390   1.506       .  S
C134        H141   1.084       .  S
C134        C135   1.369       .  D
C135        C136   1.539       .  S
C136        C140   1.525       .  S
C136        C138   1.548       .  S
C136        H142   1.045       .  S
C137        H143   1.085       .  S
C137        C138   1.381       .  D
C138        C174   1.522       .  S
C139        H144   1.081       .  S
C139        C140   1.349       .  D
C140       C1295   1.503   1_455  S
C145        C146   1.553       .  S
C145        C151   1.532       .  S
C145        C149   1.557       .  S
C145        C442   1.506       .  S
C146        H153   1.085       .  S
C146        C147   1.368       .  D
C147        C148   1.540       .  S
C147       C1372   1.517       .  S
C148        C152   1.525       .  S
C148        C150   1.549       .  S
C148        H154   1.045       .  S
C149        H155   1.085       .  S
C149        C150   1.381       .  D
C151        H156   1.081       .  S
C151        C152   1.349       .  D
C152        C159   1.504       .  S
C157        C158   1.533       .  S
C157        C163   1.553       .  S
C157        C161   1.556       .  S
C157        C399   1.506       .  S
C158        H165   1.081       .  S
C158        C159   1.349       .  D
C159        C160   1.525       .  S
C160        C164   1.540       .  S
C160        C162   1.549       .  S
C160        H166   1.045       .  S
C161        H167   1.085       .  S
C161        C162   1.381       .  D
C163        H168   1.084       .  S
C163        C164   1.369       .  D
C164       C1355   1.516       .  S
C169        C170   1.553       .  S
C169        C175   1.532       .  S
C169        C173   1.556       .  S
C169        C455   1.506       .  S
C170        H177   1.084       .  S
C170        C171   1.369       .  D
C171        C172   1.539       .  S
C171       C1348   1.516   1_455  S
C172        C176   1.525       .  S
C172        C174   1.549       .  S
C172        H178   1.045       .  S
C173        H179   1.085       .  S
C173        C174   1.381       .  D
C175        H180   1.081       .  S
C175        C176   1.349       .  D
C176        C183   1.504       .  S
C181        C182   1.532       .  S
C181        C187   1.553       .  S
C181        C185   1.557       .  S
C181        C477   1.506       .  S
C182        H189   1.081       .  S
C182        C183   1.349       .  D
C183        C184   1.525       .  S
C184        C188   1.539       .  S
C184        C186   1.549       .  S
C184        H190   1.045       .  S
C185        H191   1.085       .  S
C185        C186   1.381       .  D
C187        H192   1.085       .  S
C187        C188   1.369       .  D
C188       C1331   1.517   1_455  S
C193        C194   1.552       .  S
C193        C199   1.533       .  S
C193        C197   1.557       .  S
C193        C377   1.506       .  S
C194        H201   1.085       .  S
C194        C195   1.368       .  D
C195        C196   1.540       .  S
C195        C212   1.517       .  S
C196        C200   1.525       .  S
C196        C198   1.549       .  S
C196        H202   1.045       .  S
C197        H203   1.085       .  S
C197        C198   1.381       .  D
C198        C246   1.523       .  S
C199        H204   1.081       .  S
C199        C200   1.349       .  D
C200        C811   1.504       .  S
C205        C206   1.532       .  S
C205        C211   1.553       .  S
C205        C209   1.557       .  S
C205        C360   1.506       .  S
C206        H213   1.081       .  S
C206        C207   1.349       .  D
C207        C208   1.525       .  S
C207        C828   1.504       .  S
C208        C212   1.539       .  S
C208        C210   1.549       .  S
C208        H214   1.045       .  S
C209        H215   1.085       .  S
C209        C210   1.381       .  D
C210        C258   1.522       .  S
C211        H216   1.084       .  S
C211        C212   1.369       .  D
C217        C218   1.533       .  S
C217        C223   1.553       .  S
C217        C221   1.557       .  S
C217        C295   1.506       .  S
C218        H225   1.081       .  S
C218        C219   1.349       .  D
C219        C220   1.525       .  S
C219        C792   1.504   1_545  S
C220        C224   1.539       .  S
C220        C222   1.549       .  S
C220        H226   1.045       .  S
C221        H227   1.085       .  S
C221        C222   1.381       .  D
C222        C282   1.522       .  S
C223        H228   1.084       .  S
C223        C224   1.369       .  D
C224        C231   1.516       .  S
C229        C230   1.553       .  S
C229        C235   1.532       .  S
C229        C233   1.556       .  S
C229        C338   1.505       .  S
C230        H237   1.084       .  S
C230        C231   1.369       .  D
C231        C232   1.540       .  S
C232        C236   1.525       .  S
C232        C234   1.549       .  S
C232        H238   1.045       .  S
C233        H239   1.085       .  S
C233        C234   1.381       .  D
C234        C270   1.522       .  S
C235        H240   1.081       .  S
C235        C236   1.349       .  D
C236        C799   1.504   1_545  S
C241        C242   1.553       .  S
C241        C247   1.533       .  S
C241        C245   1.557       .  S
C241        C468   1.507       .  S
C242        H249   1.085       .  S
C242        C243   1.368       .  D
C243        C244   1.540       .  S
C243        C876   1.517       .  S
C244        C248   1.525       .  S
C244        C246   1.549       .  S
C244        H250   1.045       .  S
C245        H251   1.085       .  S
C245        C246   1.382       .  D
C247        H252   1.081       .  S
C247        C248   1.349       .  D
C248        C255   1.504       .  S
C253        C254   1.533       .  S
C253        C259   1.552       .  S
C253        C257   1.557       .  S
C253        C412   1.506       .  S
C254        H261   1.081       .  S
C254        C255   1.349       .  D
C255        C256   1.525       .  S
C256        C260   1.540       .  S
C256        C258   1.549       .  S
C256        H262   1.045       .  S
C257        H263   1.085       .  S
C257        C258   1.381       .  D
C259        H264   1.084       .  S
C259        C260   1.368       .  D
C260        C859   1.516       .  S
C265        C266   1.553       .  S
C265        C271   1.532       .  S
C265        C269   1.556       .  S
C265        C429   1.505       .  S
C266        H273   1.084       .  S
C266        C267   1.369       .  D
C267        C268   1.539       .  S
C267        C852   1.516   1_545  S
C268        C272   1.525       .  S
C268        C270   1.548       .  S
C268        H274   1.045       .  S
C269        H275   1.085       .  S
C269        C270   1.381       .  D
C271        H276   1.081       .  S
C271        C272   1.349       .  D
C272        C279   1.503       .  S
C277        C278   1.532       .  S
C277        C283   1.553       .  S
C277        C281   1.556       .  S
C277        C490   1.506       .  S
C278        H285   1.081       .  S
C278        C279   1.349       .  D
C279        C280   1.525       .  S
C280        C284   1.539       .  S
C280        C282   1.549       .  S
C280        H286   1.045       .  S
C281        H287   1.085       .  S
C281        C282   1.381       .  D
C283        H288   1.084       .  S
C283        C284   1.369       .  D
C284        C835   1.517   1_545  S
In289       O291   2.259       .  S
In289       O292   2.245       .  S
In289       O300   2.231       .  S
In289       O294   2.251       .  S
In289       O296   2.315       .  S
In289       O297   2.244       .  S
In289       O298   2.253       .  S
In289       O301   2.259       .  S
C290        O296   1.264       .  A
C290        O298   1.257       .  A
C290        C960   1.487   1_545  S
O291        C299   1.264       .  A
O292        C299   1.259       .  A
C293        O300   1.258       .  A
C293        O294   1.260       .  A
C293        C306   1.459       .  S
C295        O297   1.259       .  A
C295        O301   1.264       .  A
In302       O304   2.259       .  S
In302       O305   2.245       .  S
In302       O313   2.230       .  S
In302       O307   2.251       .  S
In302       O309   2.315       .  S
In302       O310   2.244       .  S
In302       O311   2.251       .  S
In302       O314   2.260       .  S
C303        O309   1.264       .  A
C303        O311   1.257       .  A
C303       C1500   1.486   1_455  S
O304        C312   1.264       .  A
O305        C312   1.259       .  A
C306        O313   1.258       .  A
C306        O307   1.260       .  A
C308        O310   1.259       .  A
C308        O314   1.264       .  A
C312        C497   1.506       .  S
In315       O317   2.260       .  S
In315       O318   2.244       .  S
In315       O326   2.228       .  S
In315       O320   2.249       .  S
In315       O322   2.315       .  S
In315       O323   2.244       .  S
In315       O324   2.253       .  S
In315       O327   2.258       .  S
C316        O322   1.264       .  A
C316        O324   1.257       .  A
C316       C1487   1.486       .  S
O317        C325   1.264       .  A
O318        C325   1.259       .  A
C319        O326   1.258       .  A
C319        O320   1.260       .  A
C319        C332   1.458       .  S
C321        C533   1.505       .  S
C321        O323   1.259       .  A
C321        O327   1.264       .  A
In328       O330   2.258       .  S
In328       O331   2.243       .  S
In328       O339   2.228       .  S
In328       O333   2.249       .  S
In328       O335   2.315       .  S
In328       O336   2.244       .  S
In328       O337   2.252       .  S
In328       O340   2.259       .  S
C329        O335   1.264       .  A
C329        O337   1.257       .  A
C329        C947   1.486   1_545  S
O330        C338   1.264       .  A
O331        C338   1.259       .  A
C332        O339   1.258       .  A
C332        O333   1.260       .  A
C334        O336   1.259       .  A
C334        O340   1.263       .  A
In341       O343   2.259       .  S
In341       O344   2.244       .  S
In341       O352   2.229       .  S
In341       O346   2.250       .  S
In341       O348   2.315       .  S
In341       O349   2.244       .  S
In341       O350   2.252       .  S
In341       O353   2.258       .  S
C342        O348   1.264       .  A
C342        O350   1.257       .  A
C342       C1565   1.486       .  S
O343        C351   1.264       .  A
O344        C351   1.259       .  A
C345        O352   1.258       .  A
C345        O346   1.260       .  A
C345        C358   1.458       .  S
C347        O349   1.259       .  A
C347        O353   1.264       .  A
C351        C521   1.506       .  S
In354       O356   2.259       .  S
In354       O357   2.244       .  S
In354       O365   2.229       .  S
In354       O359   2.250       .  S
In354       O361   2.315       .  S
In354       O362   2.245       .  S
In354       O363   2.252       .  S
In354       O366   2.259       .  S
C355        O361   1.264       .  A
C355        O363   1.257       .  A
C355        C921   1.486       .  S
O356        C364   1.264       .  A
O357        C364   1.259       .  A
C358        O365   1.258       .  A
C358        O359   1.260       .  A
C360        O362   1.259       .  A
C360        O366   1.264       .  A
In367       O369   2.260       .  S
In367       O370   2.245       .  S
In367       O378   2.231       .  S
In367       O372   2.252       .  S
In367       O374   2.315       .  S
In367       O375   2.245       .  S
In367       O376   2.253       .  S
In367       O379   2.258       .  S
C368        O374   1.264       .  A
C368        O376   1.257       .  A
C368        C882   1.487       .  S
O369        C377   1.263       .  A
O370        C377   1.259       .  A
C371        O378   1.258       .  A
C371        O372   1.260       .  A
C371        C384   1.460       .  S
C373        O375   1.259       .  A
C373        O379   1.264       .  A
In380       O382   2.258       .  S
In380       O383   2.245       .  S
In380       O391   2.231       .  S
In380       O385   2.251       .  S
In380       O387   2.315       .  S
In380       O388   2.245       .  S
In380       O389   2.253       .  S
In380       O392   2.260       .  S
C381        O387   1.264       .  A
C381        O389   1.257       .  A
C381       C1526   1.486   1_455  S
O382        C390   1.264       .  A
O383        C390   1.259       .  A
C384        O391   1.258       .  A
C384        O385   1.260       .  A
C386        C509   1.506       .  S
C386        O388   1.259       .  A
C386        O392   1.264       .  A
In393       O395   2.259   1_554  S
In393       O396   2.245   1_554  S
In393       O404   2.230       .  S
In393       O398   2.250       .  S
In393       O400   2.315       .  S
In393       O401   2.244       .  S
In393       O402   2.252       .  S
In393       O405   2.259       .  S
C394        O400   1.264       .  A
C394        O402   1.257       .  A
C394        C433   1.486       .  S
O395        C403   1.263       .  A
O396        C403   1.259       .  A
C397        O404   1.258       .  A
C397        O398   1.260       .  A
C397        C410   1.459       .  S
C399        O401   1.259       .  A
C399        O405   1.264       .  A
C403        C545   1.506       .  S
In406       O408   2.258       .  S
In406       O409   2.244       .  S
In406       O417   2.229       .  S
In406       O411   2.250       .  S
In406       O413   2.315       .  S
In406       O414   2.243   1_554  S
In406       O415   2.253       .  S
In406       O418   2.260   1_554  S
C407        O413   1.264       .  A
C407        O415   1.257       .  A
C407        C459   1.487       .  S
O408        C416   1.264       .  A
O409        C416   1.259       .  A
C410        O417   1.258       .  A
C410        O411   1.260       .  A
C412        O414   1.259       .  A
C412        O418   1.264       .  A
In419       O421   2.258   1_554  S
In419       O422   2.245   1_554  S
In419       O430   2.229       .  S
In419       O424   2.249       .  S
In419       O426   2.314       .  S
In419       O427   2.245       .  S
In419       O428   2.253       .  S
In419       O431   2.260       .  S
C420        O426   1.264       .  A
C420        O428   1.257       .  A
C420        C485   1.486       .  S
O421        C429   1.264       .  A
O422        C429   1.259       .  A
C423        O430   1.258       .  A
C423        O424   1.260       .  A
C423        C436   1.458       .  S
C425        O427   1.259       .  A
C425        O431   1.263       .  A
In432       O434   2.260       .  S
In432       O435   2.243       .  S
In432       O443   2.228       .  S
In432       O437   2.250       .  S
In432       O439   2.315       .  S
In432       O440   2.243   1_554  S
In432       O441   2.252       .  S
In432       O444   2.258   1_554  S
C433        O439   1.264       .  A
C433        O441   1.257       .  A
O434        C442   1.264       .  A
O435        C442   1.259       .  A
C436        O443   1.258       .  A
C436        O437   1.260       .  A
C438        C557   1.505       .  S
C438        O440   1.259       .  A
C438        O444   1.264       .  A
In445       O447   2.258       .  S
In445       O448   2.244       .  S
In445       O456   2.231       .  S
In445       O450   2.252       .  S
In445       O452   2.315       .  S
In445       O453   2.245   1_554  S
In445       O454   2.253       .  S
In445       O457   2.260   1_554  S
C446        O452   1.264       .  A
C446        O454   1.257       .  A
C446        C472   1.487       .  S
O447        C455   1.264       .  A
O448        C455   1.259       .  A
C449        O456   1.258       .  A
C449        O450   1.260       .  A
C449        C462   1.460       .  S
C451        C581   1.506       .  S
C451        O453   1.259       .  A
C451        O457   1.264       .  A
In458       O460   2.260   1_554  S
In458       O461   2.246   1_554  S
In458       O469   2.232       .  S
In458       O463   2.252       .  S
In458       O465   2.315       .  S
In458       O466   2.246       .  S
In458       O467   2.253       .  S
In458       O470   2.258       .  S
C459        O465   1.264       .  A
C459        O467   1.257       .  A
O460        C468   1.263       .  A
O461        C468   1.259       .  A
C462        O469   1.258       .  A
C462        O463   1.260       .  A
C464        O466   1.259       .  A
C464        O470   1.264       .  A
In471       O473   2.259   1_554  S
In471       O474   2.245   1_554  S
In471       O482   2.231       .  S
In471       O476   2.251       .  S
In471       O478   2.315       .  S
In471       O479   2.246       .  S
In471       O480   2.254       .  S
In471       O483   2.259       .  S
C472        O478   1.264       .  A
C472        O480   1.257       .  A
O473        C481   1.264       .  A
O474        C481   1.259       .  A
C475        O482   1.258       .  A
C475        O476   1.260       .  A
C475        C488   1.459       .  S
C477        O479   1.259       .  A
C477        O483   1.263       .  A
C481        C569   1.506       .  S
In484       O486   2.260       .  S
In484       O487   2.244       .  S
In484       O495   2.230       .  S
In484       O489   2.252       .  S
In484       O491   2.315       .  S
In484       O492   2.244   1_554  S
In484       O493   2.252       .  S
In484       O496   2.258   1_554  S
C485        O491   1.264       .  A
C485        O493   1.257       .  A
O486        C494   1.264       .  A
O487        C494   1.259       .  A
C488        O495   1.258       .  A
C488        O489   1.260       .  A
C490        O492   1.259       .  A
C490        O496   1.264       .  A
C497        C498   1.553       .  S
C497        C503   1.532       .  S
C497        C501   1.556       .  S
C498        H505   1.084       .  S
C498        C499   1.369       .  D
C499        C500   1.539       .  S
C499        C516   1.517       .  S
C500        C504   1.525       .  S
C500        C502   1.548       .  S
C500        H506   1.045       .  S
C501        H507   1.085       .  S
C501        C502   1.381       .  D
C502        C574   1.522       .  S
C503        H508   1.081       .  S
C503        C504   1.349       .  D
C504       C1719   1.503   1_455  S
C509        C510   1.533       .  S
C509        C515   1.553       .  S
C509        C513   1.557       .  S
C510        H517   1.081       .  S
C510        C511   1.349       .  D
C511        C512   1.525       .  S
C511       C1712   1.504   1_455  S
C512        C516   1.540       .  S
C512        C514   1.549       .  S
C512        H518   1.045       .  S
C513        H519   1.085       .  S
C513        C514   1.382       .  D
C514        C586   1.523       .  S
C515        H520   1.084       .  S
C515        C516   1.368       .  D
C521        C522   1.552       .  S
C521        C527   1.533       .  S
C521        C525   1.557       .  S
C522        H529   1.084       .  S
C522        C523   1.368       .  D
C523        C524   1.540       .  S
C523        C540   1.516       .  S
C524        C528   1.525       .  S
C524        C526   1.549       .  S
C524        H530   1.045       .  S
C525        H531   1.085       .  S
C525        C526   1.381       .  D
C526        C550   1.523       .  S
C527        H532   1.081       .  S
C527        C528   1.349       .  D
C528       C1695   1.504       .  S
C533        C534   1.532       .  S
C533        C539   1.553       .  S
C533        C537   1.556       .  S
C534        H541   1.081       .  S
C534        C535   1.349       .  D
C535        C536   1.525       .  S
C535       C1688   1.503       .  S
C536        C540   1.539       .  S
C536        C538   1.548       .  S
C536        H542   1.045       .  S
C537        H543   1.085       .  S
C537        C538   1.381       .  D
C538        C562   1.522       .  S
C539        H544   1.084       .  S
C539        C540   1.369       .  D
C545        C546   1.553       .  S
C545        C551   1.532       .  S
C545        C549   1.557       .  S
C546        H553   1.085       .  S
C546        C547   1.369       .  D
C547        C548   1.539       .  S
C547       C1772   1.516       .  S
C548        C552   1.525       .  S
C548        C550   1.549       .  S
C548        H554   1.045       .  S
C549        H555   1.085       .  S
C549        C550   1.381       .  D
C551        H556   1.081       .  S
C551        C552   1.349       .  D
C552        C559   1.504       .  S
C557        C558   1.532       .  S
C557        C563   1.553       .  S
C557        C561   1.556       .  S
C558        H565   1.081       .  S
C558        C559   1.349       .  D
C559        C560   1.525       .  S
C560        C564   1.539       .  S
C560        C562   1.549       .  S
C560        H566   1.045       .  S
C561        H567   1.085       .  S
C561        C562   1.381       .  D
C563        H568   1.084       .  S
C563        C564   1.369       .  D
C564       C1755   1.516       .  S
C569        C570   1.553       .  S
C569        C575   1.533       .  S
C569        C573   1.556       .  S
C570        H577   1.084       .  S
C570        C571   1.369       .  D
C571        C572   1.540       .  S
C571       C1748   1.516   1_455  S
C572        C576   1.525       .  S
C572        C574   1.549       .  S
C572        H578   1.045       .  S
C573        H579   1.085       .  S
C573        C574   1.381       .  D
C575        H580   1.081       .  S
C575        C576   1.349       .  D
C576        C583   1.504       .  S
C581        C582   1.533       .  S
C581        C587   1.552       .  S
C581        C585   1.557       .  S
C582        H589   1.081       .  S
C582        C583   1.349       .  D
C583        C584   1.525       .  S
C584        C588   1.540       .  S
C584        C586   1.549       .  S
C584        H590   1.045       .  S
C585        H591   1.085       .  S
C585        C586   1.382       .  D
C587        H592   1.085       .  S
C587        C588   1.368       .  D
C588       C1731   1.516   1_455  S
C593        C594   1.553       .  S
C593        C599   1.532       .  S
C593        C597   1.557       .  S
C593        C891   1.506       .  S
C594        H601   1.085       .  S
C594        C595   1.369       .  D
C595        C596   1.539       .  S
C595        C612   1.516       .  S
C596        C600   1.525       .  S
C596        C598   1.549       .  S
C596        H602   1.045       .  S
C597        H603   1.085       .  S
C597        C598   1.381       .  D
C598        C670   1.523       .  S
C599        H604   1.081       .  S
C599        C600   1.349       .  D
C605        C606   1.533       .  S
C605        C611   1.552       .  S
C605        C609   1.557       .  S
C605        C926   1.506       .  S
C606        H613   1.081       .  S
C606        C607   1.349       .  D
C607        C608   1.525       .  S
C608        C612   1.540       .  S
C608        C610   1.549       .  S
C608        H614   1.045       .  S
C609        H615   1.085       .  S
C609        C610   1.381       .  D
C610        C682   1.523       .  S
C611        H616   1.085       .  S
C611        C612   1.368       .  D
C617        C618   1.553       .  S
C617        C623   1.533       .  S
C617        C621   1.556       .  S
C617        C956   1.506       .  S
C618        H625   1.084       .  S
C618        C619   1.369       .  D
C619        C620   1.539       .  S
C619        C636   1.516       .  S
C620        C624   1.525       .  S
C620        C622   1.549       .  S
C620        H626   1.045       .  S
C621        H627   1.085       .  S
C621        C622   1.381       .  D
C622        C646   1.522       .  S
C623        H628   1.081       .  S
C623        C624   1.349       .  D
C629        C630   1.532       .  S
C629        C635   1.553       .  S
C629        C633   1.556       .  S
C629        C965   1.506       .  S
C630        H637   1.081       .  S
C630        C631   1.349       .  D
C631        C632   1.525       .  S
C632        C636   1.540       .  S
C632        C634   1.548       .  S
C632        H638   1.045       .  S
C633        H639   1.085       .  S
C633        C634   1.381       .  D
C634        C658   1.522       .  S
C635        H640   1.084       .  S
C635        C636   1.369       .  D
C641        C642   1.553       .  S
C641        C647   1.532       .  S
C641        C645   1.556       .  S
C641       C1008   1.505       .  S
C642        H649   1.085       .  S
C642        C643   1.369       .  D
C643        C644   1.539       .  S
C644        C648   1.525       .  S
C644        C646   1.549       .  S
C644        H650   1.045       .  S
C645        H651   1.085       .  S
C645        C646   1.381       .  D
C647        H652   1.081       .  S
C647        C648   1.349       .  D
C648        C655   1.503       .  S
C653        C654   1.532       .  S
C653        C659   1.553       .  S
C653        C657   1.556       .  S
C653       C1056   1.506       .  S
C654        H661   1.081       .  S
C654        C655   1.349       .  D
C655        C656   1.525       .  S
C656        C660   1.540       .  S
C656        C658   1.549       .  S
C656        H662   1.045       .  S
C657        H663   1.085       .  S
C657        C658   1.381       .  D
C659        H664   1.084       .  S
C659        C660   1.369       .  D
C665        C666   1.553       .  S
C665        C671   1.533       .  S
C665        C669   1.557       .  S
C665       C1086   1.506       .  S
C666        H673   1.084       .  S
C666        C667   1.368       .  D
C667        C668   1.540       .  S
C668        C672   1.525       .  S
C668        C670   1.549       .  S
C668        H674   1.045       .  S
C669        H675   1.085       .  S
C669        C670   1.381       .  D
C671        H676   1.081       .  S
C671        C672   1.349       .  D
C672        C679   1.504       .  S
C677        C678   1.533       .  S
C677        C683   1.552       .  S
C677        C681   1.557       .  S
C677       C1017   1.506       .  S
C678        H685   1.081       .  S
C678        C679   1.349       .  D
C679        C680   1.525       .  S
C680        C684   1.540       .  S
C680        C682   1.549       .  S
C680        H686   1.045       .  S
C681        H687   1.085       .  S
C681        C682   1.382       .  D
C683        H688   1.085       .  S
C683        C684   1.368       .  D
C689        C690   1.553       .  S
C689        C695   1.533       .  S
C689        C693   1.557       .  S
C689        C917   1.506       .  S
C690        H697   1.085       .  S
C690        C691   1.368       .  D
C691        C692   1.540       .  S
C691        C708   1.516       .  S
C692        C696   1.525       .  S
C692        C694   1.549       .  S
C692        H698   1.045       .  S
C693        H699   1.085       .  S
C693        C694   1.382       .  D
C694        C742   1.523       .  S
C695        H700   1.081       .  S
C695        C696   1.349       .  D
C696       C1899   1.504       .  S
C701        C702   1.532       .  S
C701        C707   1.553       .  S
C701        C705   1.556       .  S
C701        C939   1.505       .  S
C702        H709   1.081       .  S
C702        C703   1.349       .  D
C703        C704   1.525       .  S
C703       C1916   1.503       .  S
C704        C708   1.539       .  S
C704        C706   1.549       .  S
C704        H710   1.045       .  S
C705        H711   1.085       .  S
C705        C706   1.381       .  D
C706        C754   1.522       .  S
C707        H712   1.085       .  S
C707        C708   1.369       .  D
C713        C714   1.533       .  S
C713        C719   1.553       .  S
C713        C717   1.557       .  S
C713        C900   1.506       .  S
C714        H721   1.081       .  S
C714        C715   1.349       .  D
C715        C716   1.525       .  S
C715       C1880   1.504   1_455  S
C716        C720   1.540       .  S
C716        C718   1.549       .  S
C716        H722   1.045       .  S
C717        H723   1.085       .  S
C717        C718   1.381       .  D
C718        C778   1.523       .  S
C719        H724   1.084       .  S
C719        C720   1.368       .  D
C720        C727   1.517       .  S
C725        C726   1.553       .  S
C725        C731   1.532       .  S
C725        C729   1.556       .  S
C725        C982   1.506       .  S
C726        H733   1.084       .  S
C726        C727   1.369       .  D
C727        C728   1.539       .  S
C728        C732   1.525       .  S
C728        C730   1.548       .  S
C728        H734   1.045       .  S
C729        H735   1.085       .  S
C729        C730   1.381       .  D
C730        C766   1.522       .  S
C731        H736   1.081       .  S
C731        C732   1.349       .  D
C732       C1887   1.503   1_455  S
C737        C738   1.553       .  S
C737        C743   1.532       .  S
C737        C741   1.557       .  S
C737       C1034   1.506       .  S
C738        H745   1.085       .  S
C738        C739   1.368       .  D
C739        C740   1.540       .  S
C739       C1964   1.517       .  S
C740        C744   1.525       .  S
C740        C742   1.549       .  S
C740        H746   1.045       .  S
C741        H747   1.085       .  S
C741        C742   1.381       .  D
C743        H748   1.081       .  S
C743        C744   1.349       .  D
C744        C751   1.504       .  S
C749        C750   1.533       .  S
C749        C755   1.553       .  S
C749        C753   1.556       .  S
C749        C991   1.506       .  S
C750        H757   1.081       .  S
C750        C751   1.349       .  D
C751        C752   1.525       .  S
C752        C756   1.540       .  S
C752        C754   1.549       .  S
C752        H758   1.045       .  S
C753        H759   1.085       .  S
C753        C754   1.381       .  D
C755        H760   1.084       .  S
C755        C756   1.369       .  D
C756       C1947   1.516       .  S
C761        C762   1.553       .  S
C761        C767   1.532       .  S
C761        C765   1.556       .  S
C761       C1047   1.506       .  S
C762        H769   1.084       .  S
C762        C763   1.369       .  D
C763        C764   1.539       .  S
C763       C1940   1.516   1_455  S
C764        C768   1.525       .  S
C764        C766   1.549       .  S
C764        H770   1.045       .  S
C765        H771   1.085       .  S
C765        C766   1.381       .  D
C767        H772   1.081       .  S
C767        C768   1.349       .  D
C768        C775   1.504       .  S
C773        C774   1.532       .  S
C773        C779   1.553       .  S
C773        C777   1.557       .  S
C773       C1069   1.506       .  S
C774        H781   1.081       .  S
C774        C775   1.349       .  D
C775        C776   1.525       .  S
C776        C780   1.539       .  S
C776        C778   1.549       .  S
C776        H782   1.045       .  S
C777        H783   1.085       .  S
C777        C778   1.381       .  D
C779        H784   1.085       .  S
C779        C780   1.369       .  D
C780       C1923   1.517   1_455  S
C785        C786   1.552       .  S
C785        C791   1.533       .  S
C785        C789   1.557       .  S
C785        C969   1.506       .  S
C786        H793   1.085       .  S
C786        C787   1.368       .  D
C787        C788   1.540       .  S
C787        C804   1.517       .  S
C788        C792   1.525       .  S
C788        C790   1.549       .  S
C788        H794   1.045       .  S
C789        H795   1.085       .  S
C789        C790   1.381       .  D
C790        C838   1.523       .  S
C791        H796   1.081       .  S
C791        C792   1.349       .  D
C797        C798   1.532       .  S
C797        C803   1.553       .  S
C797        C801   1.557       .  S
C797        C952   1.506       .  S
C798        H805   1.081       .  S
C798        C799   1.349       .  D
C799        C800   1.525       .  S
C800        C804   1.539       .  S
C800        C802   1.549       .  S
C800        H806   1.045       .  S
C801        H807   1.085       .  S
C801        C802   1.381       .  D
C802        C850   1.522       .  S
C803        H808   1.085       .  S
C803        C804   1.369       .  D
C809        C810   1.533       .  S
C809        C815   1.553       .  S
C809        C813   1.557       .  S
C809        C887   1.506       .  S
C810        H817   1.081       .  S
C810        C811   1.349       .  D
C811        C812   1.525       .  S
C812        C816   1.539       .  S
C812        C814   1.549       .  S
C812        H818   1.045       .  S
C813        H819   1.085       .  S
C813        C814   1.381       .  D
C814        C874   1.522       .  S
C815        H820   1.084       .  S
C815        C816   1.369       .  D
C816        C823   1.516       .  S
C821        C822   1.553       .  S
C821        C827   1.532       .  S
C821        C825   1.556       .  S
C821        C930   1.505       .  S
C822        H829   1.084       .  S
C822        C823   1.369       .  D
C823        C824   1.540       .  S
C824        C828   1.525       .  S
C824        C826   1.549       .  S
C824        H830   1.045       .  S
C825        H831   1.085       .  S
C825        C826   1.381       .  D
C826        C862   1.522       .  S
C827        H832   1.081       .  S
C827        C828   1.349       .  D
C833        C834   1.553       .  S
C833        C839   1.533       .  S
C833        C837   1.557       .  S
C833       C1060   1.507       .  S
C834        H841   1.085       .  S
C834        C835   1.368       .  D
C835        C836   1.540       .  S
C836        C840   1.525       .  S
C836        C838   1.549       .  S
C836        H842   1.045       .  S
C837        H843   1.085       .  S
C837        C838   1.382       .  D
C839        H844   1.081       .  S
C839        C840   1.349       .  D
C840        C847   1.504       .  S
C845        C846   1.533       .  S
C845        C851   1.552       .  S
C845        C849   1.557       .  S
C845       C1004   1.506       .  S
C846        H853   1.081       .  S
C846        C847   1.349       .  D
C847        C848   1.525       .  S
C848        C852   1.540       .  S
C848        C850   1.549       .  S
C848        H854   1.045       .  S
C849        H855   1.085       .  S
C849        C850   1.381       .  D
C851        H856   1.084       .  S
C851        C852   1.368       .  D
C857        C858   1.553       .  S
C857        C863   1.532       .  S
C857        C861   1.556       .  S
C857       C1021   1.505       .  S
C858        H865   1.084       .  S
C858        C859   1.369       .  D
C859        C860   1.539       .  S
C860        C864   1.525       .  S
C860        C862   1.548       .  S
C860        H866   1.045       .  S
C861        H867   1.085       .  S
C861        C862   1.381       .  D
C863        H868   1.081       .  S
C863        C864   1.349       .  D
C864        C871   1.503       .  S
C869        C870   1.532       .  S
C869        C875   1.553       .  S
C869        C873   1.556       .  S
C869       C1082   1.506       .  S
C870        H877   1.081       .  S
C870        C871   1.349       .  D
C871        C872   1.525       .  S
C872        C876   1.539       .  S
C872        C874   1.549       .  S
C872        H878   1.045       .  S
C873        H879   1.085       .  S
C873        C874   1.381       .  D
C875        H880   1.084       .  S
C875        C876   1.369       .  D
In881       O883   2.259       .  S
In881       O884   2.245       .  S
In881       O892   2.231       .  S
In881       O886   2.251       .  S
In881       O888   2.315       .  S
In881       O889   2.244       .  S
In881       O890   2.253       .  S
In881       O893   2.259       .  S
C882        O888   1.264       .  A
C882        O890   1.257       .  A
O883        C891   1.264       .  A
O884        C891   1.259       .  A
C885        O892   1.258       .  A
C885        O886   1.260       .  A
C885        C898   1.459       .  S
C887        O889   1.259       .  A
C887        O893   1.264       .  A
In894       O896   2.259       .  S
In894       O897   2.245       .  S
In894       O905   2.230       .  S
In894       O899   2.251       .  S
In894       O901   2.315       .  S
In894       O902   2.244       .  S
In894       O903   2.251       .  S
In894       O906   2.260       .  S
C895        O901   1.264       .  A
C895        O903   1.257       .  A
C895       C2092   1.486   1_455  S
O896        C904   1.264       .  A
O897        C904   1.259       .  A
C898        O905   1.258       .  A
C898        O899   1.260       .  A
C900        O902   1.259       .  A
C900        O906   1.264       .  A
C904       C1089   1.506       .  S
In907       O909   2.260       .  S
In907       O910   2.244       .  S
In907       O918   2.228       .  S
In907       O912   2.249       .  S
In907       O914   2.315       .  S
In907       O915   2.244       .  S
In907       O916   2.253       .  S
In907       O919   2.258       .  S
C908        O914   1.264       .  A
C908        O916   1.257       .  A
C908       C2079   1.486       .  S
O909        C917   1.264       .  A
O910        C917   1.259       .  A
C911        O918   1.258       .  A
C911        O912   1.260       .  A
C911        C924   1.458       .  S
C913       C1125   1.505       .  S
C913        O915   1.259       .  A
C913        O919   1.264       .  A
In920       O922   2.258       .  S
In920       O923   2.243       .  S
In920       O931   2.228       .  S
In920       O925   2.249       .  S
In920       O927   2.315       .  S
In920       O928   2.244       .  S
In920       O929   2.252       .  S
In920       O932   2.259       .  S
C921        O927   1.264       .  A
C921        O929   1.257       .  A
O922        C930   1.264       .  A
O923        C930   1.259       .  A
C924        O931   1.258       .  A
C924        O925   1.260       .  A
C926        O928   1.259       .  A
C926        O932   1.263       .  A
In933       O935   2.259       .  S
In933       O936   2.244       .  S
In933       O944   2.229       .  S
In933       O938   2.250       .  S
In933       O940   2.315       .  S
In933       O941   2.244       .  S
In933       O942   2.252       .  S
In933       O945   2.258       .  S
C934        O940   1.264       .  A
C934        O942   1.257       .  A
C934       C2157   1.486       .  S
O935        C943   1.264       .  A
O936        C943   1.259       .  A
C937        O944   1.258       .  A
C937        O938   1.260       .  A
C937        C950   1.458       .  S
C939        O941   1.259       .  A
C939        O945   1.264       .  A
C943       C1113   1.506       .  S
In946       O948   2.259       .  S
In946       O949   2.244       .  S
In946       O957   2.229       .  S
In946       O951   2.250       .  S
In946       O953   2.315       .  S
In946       O954   2.245       .  S
In946       O955   2.252       .  S
In946       O958   2.259       .  S
C947        O953   1.264       .  A
C947        O955   1.257       .  A
O948        C956   1.264       .  A
O949        C956   1.259       .  A
C950        O957   1.258       .  A
C950        O951   1.260       .  A
C952        O954   1.259       .  A
C952        O958   1.264       .  A
In959       O961   2.260       .  S
In959       O962   2.245       .  S
In959       O970   2.231       .  S
In959       O964   2.252       .  S
In959       O966   2.315       .  S
In959       O967   2.245       .  S
In959       O968   2.253       .  S
In959       O971   2.258       .  S
C960        O966   1.264       .  A
C960        O968   1.257       .  A
O961        C969   1.263       .  A
O962        C969   1.259       .  A
C963        O970   1.258       .  A
C963        O964   1.260       .  A
C963        C976   1.460       .  S
C965        O967   1.259       .  A
C965        O971   1.264       .  A
In972       O974   2.258       .  S
In972       O975   2.245       .  S
In972       O983   2.231       .  S
In972       O977   2.251       .  S
In972       O979   2.315       .  S
In972       O980   2.245       .  S
In972       O981   2.253       .  S
In972       O984   2.260       .  S
C973        O979   1.264       .  A
C973        O981   1.257       .  A
C973       C2118   1.486   1_455  S
O974        C982   1.264       .  A
O975        C982   1.259       .  A
C976        O983   1.258       .  A
C976        O977   1.260       .  A
C978       C1101   1.506       .  S
C978        O980   1.259       .  A
C978        O984   1.264       .  A
In985       O987   2.259   1_554  S
In985       O988   2.245   1_554  S
In985       O996   2.230       .  S
In985       O990   2.250       .  S
In985       O992   2.315       .  S
In985       O993   2.244       .  S
In985       O994   2.252       .  S
In985       O997   2.259       .  S
C986        O992   1.264       .  A
C986        O994   1.257       .  A
C986       C1025   1.486       .  S
O987        C995   1.263       .  A
O988        C995   1.259       .  A
C989        O996   1.258       .  A
C989        O990   1.260       .  A
C989       C1002   1.459       .  S
C991        O993   1.259       .  A
C991        O997   1.264       .  A
C995       C1137   1.506       .  S
In998      O1000   2.258       .  S
In998      O1001   2.244       .  S
In998      O1009   2.229       .  S
In998      O1003   2.250       .  S
In998      O1005   2.315       .  S
In998      O1006   2.243   1_554  S
In998      O1007   2.253       .  S
In998      O1010   2.260   1_554  S
C999       O1005   1.264       .  A
C999       O1007   1.257       .  A
C999       C1051   1.487       .  S
O1000      C1008   1.264       .  A
O1001      C1008   1.259       .  A
C1002      O1009   1.258       .  A
C1002      O1003   1.260       .  A
C1004      O1006   1.259       .  A
C1004      O1010   1.264       .  A
In1011     O1013   2.258   1_554  S
In1011     O1014   2.245   1_554  S
In1011     O1022   2.229       .  S
In1011     O1016   2.249       .  S
In1011     O1018   2.314       .  S
In1011     O1019   2.245       .  S
In1011     O1020   2.253       .  S
In1011     O1023   2.260       .  S
C1012      O1018   1.264       .  A
C1012      O1020   1.257       .  A
C1012      C1077   1.486       .  S
O1013      C1021   1.264       .  A
O1014      C1021   1.259       .  A
C1015      O1022   1.258       .  A
C1015      O1016   1.260       .  A
C1015      C1028   1.458       .  S
C1017      O1019   1.259       .  A
C1017      O1023   1.263       .  A
In1024     O1026   2.260       .  S
In1024     O1027   2.243       .  S
In1024     O1035   2.228       .  S
In1024     O1029   2.250       .  S
In1024     O1031   2.315       .  S
In1024     O1032   2.243   1_554  S
In1024     O1033   2.252       .  S
In1024     O1036   2.258   1_554  S
C1025      O1031   1.264       .  A
C1025      O1033   1.257       .  A
O1026      C1034   1.264       .  A
O1027      C1034   1.259       .  A
C1028      O1035   1.258       .  A
C1028      O1029   1.260       .  A
C1030      C1149   1.505       .  S
C1030      O1032   1.259       .  A
C1030      O1036   1.264       .  A
In1037     O1039   2.258       .  S
In1037     O1040   2.244       .  S
In1037     O1048   2.231       .  S
In1037     O1042   2.252       .  S
In1037     O1044   2.315       .  S
In1037     O1045   2.245   1_554  S
In1037     O1046   2.253       .  S
In1037     O1049   2.260   1_554  S
C1038      O1044   1.264       .  A
C1038      O1046   1.257       .  A
C1038      C1064   1.487       .  S
O1039      C1047   1.264       .  A
O1040      C1047   1.259       .  A
C1041      O1048   1.258       .  A
C1041      O1042   1.260       .  A
C1041      C1054   1.460       .  S
C1043      C1173   1.506       .  S
C1043      O1045   1.259       .  A
C1043      O1049   1.264       .  A
In1050     O1052   2.260   1_554  S
In1050     O1053   2.246   1_554  S
In1050     O1061   2.232       .  S
In1050     O1055   2.252       .  S
In1050     O1057   2.315       .  S
In1050     O1058   2.246       .  S
In1050     O1059   2.253       .  S
In1050     O1062   2.258       .  S
C1051      O1057   1.264       .  A
C1051      O1059   1.257       .  A
O1052      C1060   1.263       .  A
O1053      C1060   1.259       .  A
C1054      O1061   1.258       .  A
C1054      O1055   1.260       .  A
C1056      O1058   1.259       .  A
C1056      O1062   1.264       .  A
In1063     O1065   2.259   1_554  S
In1063     O1066   2.245   1_554  S
In1063     O1074   2.231       .  S
In1063     O1068   2.251       .  S
In1063     O1070   2.315       .  S
In1063     O1071   2.246       .  S
In1063     O1072   2.254       .  S
In1063     O1075   2.259       .  S
C1064      O1070   1.264       .  A
C1064      O1072   1.257       .  A
O1065      C1073   1.264       .  A
O1066      C1073   1.259       .  A
C1067      O1074   1.258       .  A
C1067      O1068   1.260       .  A
C1067      C1080   1.459       .  S
C1069      O1071   1.259       .  A
C1069      O1075   1.263       .  A
C1073      C1161   1.506       .  S
In1076     O1078   2.260       .  S
In1076     O1079   2.244       .  S
In1076     O1087   2.230       .  S
In1076     O1081   2.252       .  S
In1076     O1083   2.315       .  S
In1076     O1084   2.244   1_554  S
In1076     O1085   2.252       .  S
In1076     O1088   2.258   1_554  S
C1077      O1083   1.264       .  A
C1077      O1085   1.257       .  A
O1078      C1086   1.264       .  A
O1079      C1086   1.259       .  A
C1080      O1087   1.258       .  A
C1080      O1081   1.260       .  A
C1082      O1084   1.259       .  A
C1082      O1088   1.264       .  A
C1089      C1090   1.553       .  S
C1089      C1095   1.532       .  S
C1089      C1093   1.556       .  S
C1090      H1097   1.084       .  S
C1090      C1091   1.369       .  D
C1091      C1092   1.539       .  S
C1091      C1108   1.517       .  S
C1092      C1096   1.525       .  S
C1092      C1094   1.548       .  S
C1092      H1098   1.045       .  S
C1093      H1099   1.085       .  S
C1093      C1094   1.381       .  D
C1094      C1166   1.522       .  S
C1095      H1100   1.081       .  S
C1095      C1096   1.349       .  D
C1096      C2311   1.503   1_455  S
C1101      C1102   1.533       .  S
C1101      C1107   1.553       .  S
C1101      C1105   1.557       .  S
C1102      H1109   1.081       .  S
C1102      C1103   1.349       .  D
C1103      C1104   1.525       .  S
C1103      C2304   1.504   1_455  S
C1104      C1108   1.540       .  S
C1104      C1106   1.549       .  S
C1104      H1110   1.045       .  S
C1105      H1111   1.085       .  S
C1105      C1106   1.382       .  D
C1106      C1178   1.523       .  S
C1107      H1112   1.085       .  S
C1107      C1108   1.368       .  D
C1113      C1114   1.552       .  S
C1113      C1119   1.533       .  S
C1113      C1117   1.557       .  S
C1114      H1121   1.084       .  S
C1114      C1115   1.368       .  D
C1115      C1116   1.540       .  S
C1115      C1132   1.516       .  S
C1116      C1120   1.525       .  S
C1116      C1118   1.549       .  S
C1116      H1122   1.045       .  S
C1117      H1123   1.085       .  S
C1117      C1118   1.381       .  D
C1118      C1142   1.523       .  S
C1119      H1124   1.081       .  S
C1119      C1120   1.349       .  D
C1120      C2287   1.504       .  S
C1125      C1126   1.532       .  S
C1125      C1131   1.553       .  S
C1125      C1129   1.556       .  S
C1126      H1133   1.081       .  S
C1126      C1127   1.349       .  D
C1127      C1128   1.525       .  S
C1127      C2280   1.503       .  S
C1128      C1132   1.539       .  S
C1128      C1130   1.548       .  S
C1128      H1134   1.045       .  S
C1129      H1135   1.085       .  S
C1129      C1130   1.381       .  D
C1130      C1154   1.522       .  S
C1131      H1136   1.084       .  S
C1131      C1132   1.369       .  D
C1137      C1138   1.553       .  S
C1137      C1143   1.532       .  S
C1137      C1141   1.557       .  S
C1138      H1145   1.085       .  S
C1138      C1139   1.369       .  D
C1139      C1140   1.539       .  S
C1139      C2364   1.516       .  S
C1140      C1144   1.525       .  S
C1140      C1142   1.549       .  S
C1140      H1146   1.045       .  S
C1141      H1147   1.085       .  S
C1141      C1142   1.381       .  D
C1143      H1148   1.081       .  S
C1143      C1144   1.349       .  D
C1144      C1151   1.504       .  S
C1149      C1150   1.532       .  S
C1149      C1155   1.553       .  S
C1149      C1153   1.556       .  S
C1150      H1157   1.081       .  S
C1150      C1151   1.349       .  D
C1151      C1152   1.525       .  S
C1152      C1156   1.539       .  S
C1152      C1154   1.549       .  S
C1152      H1158   1.045       .  S
C1153      H1159   1.085       .  S
C1153      C1154   1.381       .  D
C1155      H1160   1.084       .  S
C1155      C1156   1.369       .  D
C1156      C2347   1.516       .  S
C1161      C1162   1.553       .  S
C1161      C1167   1.533       .  S
C1161      C1165   1.556       .  S
C1162      H1169   1.084       .  S
C1162      C1163   1.369       .  D
C1163      C1164   1.540       .  S
C1163      C2340   1.516   1_455  S
C1164      C1168   1.525       .  S
C1164      C1166   1.549       .  S
C1164      H1170   1.045       .  S
C1165      H1171   1.085       .  S
C1165      C1166   1.381       .  D
C1167      H1172   1.081       .  S
C1167      C1168   1.349       .  D
C1168      C1175   1.504       .  S
C1173      C1174   1.533       .  S
C1173      C1179   1.552       .  S
C1173      C1177   1.557       .  S
C1174      H1181   1.081       .  S
C1174      C1175   1.349       .  D
C1175      C1176   1.525       .  S
C1176      C1180   1.540       .  S
C1176      C1178   1.549       .  S
C1176      H1182   1.045       .  S
C1177      H1183   1.085       .  S
C1177      C1178   1.382       .  D
C1179      H1184   1.085       .  S
C1179      C1180   1.368       .  D
C1180      C2323   1.516   1_455  S
C1185      C1186   1.553       .  S
C1185      C1191   1.532       .  S
C1185      C1189   1.557       .  S
C1185      C1483   1.506       .  S
C1186      H1193   1.085       .  S
C1186      C1187   1.369       .  D
C1187      C1188   1.539       .  S
C1187      C1204   1.516       .  S
C1188      C1192   1.525       .  S
C1188      C1190   1.549       .  S
C1188      H1194   1.045       .  S
C1189      H1195   1.085       .  S
C1189      C1190   1.381       .  D
C1190      C1262   1.523       .  S
C1191      H1196   1.081       .  S
C1191      C1192   1.349       .  D
C1192      C1815   1.504   1_545  S
C1197      C1198   1.533       .  S
C1197      C1203   1.552       .  S
C1197      C1201   1.557       .  S
C1197      C1518   1.506       .  S
C1198      H1205   1.081       .  S
C1198      C1199   1.349       .  D
C1199      C1200   1.525       .  S
C1199      C1808   1.504   1_545  S
C1200      C1204   1.540       .  S
C1200      C1202   1.549       .  S
C1200      H1206   1.045       .  S
C1201      H1207   1.085       .  S
C1201      C1202   1.381       .  D
C1202      C1274   1.523       .  S
C1203      H1208   1.085       .  S
C1203      C1204   1.368       .  D
C1209      C1210   1.553       .  S
C1209      C1215   1.533       .  S
C1209      C1213   1.556       .  S
C1209      C1548   1.506       .  S
C1210      H1217   1.084       .  S
C1210      C1211   1.369       .  D
C1211      C1212   1.539       .  S
C1211      C1228   1.516       .  S
C1212      C1216   1.525       .  S
C1212      C1214   1.549       .  S
C1212      H1218   1.045       .  S
C1213      H1219   1.085       .  S
C1213      C1214   1.381       .  D
C1214      C1238   1.522       .  S
C1215      H1220   1.081       .  S
C1215      C1216   1.349       .  D
C1216      C1791   1.504       .  S
C1221      C1222   1.532       .  S
C1221      C1227   1.553       .  S
C1221      C1225   1.556       .  S
C1221      C1557   1.506       .  S
C1222      H1229   1.081       .  S
C1222      C1223   1.349       .  D
C1223      C1224   1.525       .  S
C1223      C1784   1.504       .  S
C1224      C1228   1.540       .  S
C1224      C1226   1.548       .  S
C1224      H1230   1.045       .  S
C1225      H1231   1.085       .  S
C1225      C1226   1.381       .  D
C1226      C1250   1.522       .  S
C1227      H1232   1.084       .  S
C1227      C1228   1.369       .  D
C1233      C1234   1.553       .  S
C1233      C1239   1.532       .  S
C1233      C1237   1.556       .  S
C1233      C1600   1.505       .  S
C1234      H1241   1.085       .  S
C1234      C1235   1.369       .  D
C1235      C1236   1.539       .  S
C1235      C1868   1.516       .  S
C1236      C1240   1.525       .  S
C1236      C1238   1.549       .  S
C1236      H1242   1.045       .  S
C1237      H1243   1.085       .  S
C1237      C1238   1.381       .  D
C1239      H1244   1.081       .  S
C1239      C1240   1.349       .  D
C1240      C1247   1.503       .  S
C1245      C1246   1.532       .  S
C1245      C1251   1.553       .  S
C1245      C1249   1.556       .  S
C1245      C1648   1.506       .  S
C1246      H1253   1.081       .  S
C1246      C1247   1.349       .  D
C1247      C1248   1.525       .  S
C1248      C1252   1.540       .  S
C1248      C1250   1.549       .  S
C1248      H1254   1.045       .  S
C1249      H1255   1.085       .  S
C1249      C1250   1.381       .  D
C1251      H1256   1.084       .  S
C1251      C1252   1.369       .  D
C1252      C1851   1.517       .  S
C1257      C1258   1.553       .  S
C1257      C1263   1.533       .  S
C1257      C1261   1.557       .  S
C1257      C1678   1.506       .  S
C1258      H1265   1.084       .  S
C1258      C1259   1.368       .  D
C1259      C1260   1.540       .  S
C1259      C1844   1.517   1_545  S
C1260      C1264   1.525       .  S
C1260      C1262   1.549       .  S
C1260      H1266   1.045       .  S
C1261      H1267   1.085       .  S
C1261      C1262   1.381       .  D
C1263      H1268   1.081       .  S
C1263      C1264   1.349       .  D
C1264      C1271   1.504       .  S
C1269      C1270   1.533       .  S
C1269      C1275   1.552       .  S
C1269      C1273   1.557       .  S
C1269      C1609   1.506       .  S
C1270      H1277   1.081       .  S
C1270      C1271   1.349       .  D
C1271      C1272   1.525       .  S
C1272      C1276   1.540       .  S
C1272      C1274   1.549       .  S
C1272      H1278   1.045       .  S
C1273      H1279   1.085       .  S
C1273      C1274   1.382       .  D
C1275      H1280   1.084       .  S
C1275      C1276   1.368       .  D
C1276      C1827   1.516   1_545  S
C1281      C1282   1.553       .  S
C1281      C1287   1.533       .  S
C1281      C1285   1.557       .  S
C1281      C1509   1.506       .  S
C1282      H1289   1.085       .  S
C1282      C1283   1.368       .  D
C1283      C1284   1.540       .  S
C1283      C1300   1.516       .  S
C1284      C1288   1.525       .  S
C1284      C1286   1.549       .  S
C1284      H1290   1.045       .  S
C1285      H1291   1.085       .  S
C1285      C1286   1.382       .  D
C1286      C1334   1.523       .  S
C1287      H1292   1.081       .  S
C1287      C1288   1.349       .  D
C1293      C1294   1.532       .  S
C1293      C1299   1.553       .  S
C1293      C1297   1.556       .  S
C1293      C1531   1.505       .  S
C1294      H1301   1.081       .  S
C1294      C1295   1.349       .  D
C1295      C1296   1.525       .  S
C1296      C1300   1.539       .  S
C1296      C1298   1.549       .  S
C1296      H1302   1.045       .  S
C1297      H1303   1.085       .  S
C1297      C1298   1.381       .  D
C1298      C1346   1.522       .  S
C1299      H1304   1.085       .  S
C1299      C1300   1.369       .  D
C1305      C1306   1.533       .  S
C1305      C1311   1.553       .  S
C1305      C1309   1.557       .  S
C1305      C1492   1.506       .  S
C1306      H1313   1.081       .  S
C1306      C1307   1.349       .  D
C1307      C1308   1.525       .  S
C1308      C1312   1.540       .  S
C1308      C1310   1.549       .  S
C1308      H1314   1.045       .  S
C1309      H1315   1.085       .  S
C1309      C1310   1.381       .  D
C1310      C1370   1.523       .  S
C1311      H1316   1.084       .  S
C1311      C1312   1.368       .  D
C1312      C1319   1.517       .  S
C1317      C1318   1.553       .  S
C1317      C1323   1.532       .  S
C1317      C1321   1.556       .  S
C1317      C1574   1.506       .  S
C1318      H1325   1.084       .  S
C1318      C1319   1.369       .  D
C1319      C1320   1.539       .  S
C1320      C1324   1.525       .  S
C1320      C1322   1.548       .  S
C1320      H1326   1.045       .  S
C1321      H1327   1.085       .  S
C1321      C1322   1.381       .  D
C1322      C1358   1.522       .  S
C1323      H1328   1.081       .  S
C1323      C1324   1.349       .  D
C1329      C1330   1.553       .  S
C1329      C1335   1.532       .  S
C1329      C1333   1.557       .  S
C1329      C1626   1.506       .  S
C1330      H1337   1.085       .  S
C1330      C1331   1.368       .  D
C1331      C1332   1.540       .  S
C1332      C1336   1.525       .  S
C1332      C1334   1.549       .  S
C1332      H1338   1.045       .  S
C1333      H1339   1.085       .  S
C1333      C1334   1.381       .  D
C1335      H1340   1.081       .  S
C1335      C1336   1.349       .  D
C1336      C1343   1.504       .  S
C1341      C1342   1.533       .  S
C1341      C1347   1.553       .  S
C1341      C1345   1.556       .  S
C1341      C1583   1.506       .  S
C1342      H1349   1.081       .  S
C1342      C1343   1.349       .  D
C1343      C1344   1.525       .  S
C1344      C1348   1.540       .  S
C1344      C1346   1.549       .  S
C1344      H1350   1.045       .  S
C1345      H1351   1.085       .  S
C1345      C1346   1.381       .  D
C1347      H1352   1.084       .  S
C1347      C1348   1.369       .  D
C1353      C1354   1.553       .  S
C1353      C1359   1.532       .  S
C1353      C1357   1.556       .  S
C1353      C1639   1.506       .  S
C1354      H1361   1.084       .  S
C1354      C1355   1.369       .  D
C1355      C1356   1.539       .  S
C1356      C1360   1.525       .  S
C1356      C1358   1.549       .  S
C1356      H1362   1.045       .  S
C1357      H1363   1.085       .  S
C1357      C1358   1.381       .  D
C1359      H1364   1.081       .  S
C1359      C1360   1.349       .  D
C1360      C1367   1.504       .  S
C1365      C1366   1.532       .  S
C1365      C1371   1.553       .  S
C1365      C1369   1.557       .  S
C1365      C1661   1.506       .  S
C1366      H1373   1.081       .  S
C1366      C1367   1.349       .  D
C1367      C1368   1.525       .  S
C1368      C1372   1.539       .  S
C1368      C1370   1.549       .  S
C1368      H1374   1.045       .  S
C1369      H1375   1.085       .  S
C1369      C1370   1.381       .  D
C1371      H1376   1.085       .  S
C1371      C1372   1.369       .  D
C1377      C1378   1.552       .  S
C1377      C1383   1.533       .  S
C1377      C1381   1.557       .  S
C1377      C1561   1.506       .  S
C1378      H1385   1.085       .  S
C1378      C1379   1.368       .  D
C1379      C1380   1.540       .  S
C1379      C1396   1.517       .  S
C1380      C1384   1.525       .  S
C1380      C1382   1.549       .  S
C1380      H1386   1.045       .  S
C1381      H1387   1.085       .  S
C1381      C1382   1.381       .  D
C1382      C1430   1.523       .  S
C1383      H1388   1.081       .  S
C1383      C1384   1.349       .  D
C1384      C1995   1.504       .  S
C1389      C1390   1.532       .  S
C1389      C1395   1.553       .  S
C1389      C1393   1.557       .  S
C1389      C1544   1.506       .  S
C1390      H1397   1.081       .  S
C1390      C1391   1.349       .  D
C1391      C1392   1.525       .  S
C1391      C2012   1.504       .  S
C1392      C1396   1.539       .  S
C1392      C1394   1.549       .  S
C1392      H1398   1.045       .  S
C1393      H1399   1.085       .  S
C1393      C1394   1.381       .  D
C1394      C1442   1.522       .  S
C1395      H1400   1.085       .  S
C1395      C1396   1.369       .  D
C1401      C1402   1.533       .  S
C1401      C1407   1.553       .  S
C1401      C1405   1.557       .  S
C1401      C1479   1.506       .  S
C1402      H1409   1.081       .  S
C1402      C1403   1.349       .  D
C1403      C1404   1.525       .  S
C1403      C1976   1.504   1_545  S
C1404      C1408   1.539       .  S
C1404      C1406   1.549       .  S
C1404      H1410   1.045       .  S
C1405      H1411   1.085       .  S
C1405      C1406   1.381       .  D
C1406      C1466   1.522       .  S
C1407      H1412   1.084       .  S
C1407      C1408   1.369       .  D
C1408      C1415   1.516       .  S
C1413      C1414   1.553       .  S
C1413      C1419   1.532       .  S
C1413      C1417   1.556       .  S
C1413      C1522   1.505       .  S
C1414      H1421   1.084       .  S
C1414      C1415   1.369       .  D
C1415      C1416   1.540       .  S
C1416      C1420   1.525       .  S
C1416      C1418   1.549       .  S
C1416      H1422   1.045       .  S
C1417      H1423   1.085       .  S
C1417      C1418   1.381       .  D
C1418      C1454   1.522       .  S
C1419      H1424   1.081       .  S
C1419      C1420   1.349       .  D
C1420      C1983   1.504   1_545  S
C1425      C1426   1.553       .  S
C1425      C1431   1.533       .  S
C1425      C1429   1.557       .  S
C1425      C1652   1.507       .  S
C1426      H1433   1.085       .  S
C1426      C1427   1.368       .  D
C1427      C1428   1.540       .  S
C1427      C2060   1.517       .  S
C1428      C1432   1.525       .  S
C1428      C1430   1.549       .  S
C1428      H1434   1.045       .  S
C1429      H1435   1.085       .  S
C1429      C1430   1.382       .  D
C1431      H1436   1.081       .  S
C1431      C1432   1.349       .  D
C1432      C1439   1.504       .  S
C1437      C1438   1.533       .  S
C1437      C1443   1.552       .  S
C1437      C1441   1.557       .  S
C1437      C1596   1.506       .  S
C1438      H1445   1.081       .  S
C1438      C1439   1.349       .  D
C1439      C1440   1.525       .  S
C1440      C1444   1.540       .  S
C1440      C1442   1.549       .  S
C1440      H1446   1.045       .  S
C1441      H1447   1.085       .  S
C1441      C1442   1.381       .  D
C1443      H1448   1.084       .  S
C1443      C1444   1.368       .  D
C1444      C2043   1.516       .  S
C1449      C1450   1.553       .  S
C1449      C1455   1.532       .  S
C1449      C1453   1.556       .  S
C1449      C1613   1.505       .  S
C1450      H1457   1.084       .  S
C1450      C1451   1.369       .  D
C1451      C1452   1.539       .  S
C1451      C2036   1.516   1_545  S
C1452      C1456   1.525       .  S
C1452      C1454   1.548       .  S
C1452      H1458   1.045       .  S
C1453      H1459   1.085       .  S
C1453      C1454   1.381       .  D
C1455      H1460   1.081       .  S
C1455      C1456   1.349       .  D
C1456      C1463   1.503       .  S
C1461      C1462   1.532       .  S
C1461      C1467   1.553       .  S
C1461      C1465   1.556       .  S
C1461      C1674   1.506       .  S
C1462      H1469   1.081       .  S
C1462      C1463   1.349       .  D
C1463      C1464   1.525       .  S
C1464      C1468   1.539       .  S
C1464      C1466   1.549       .  S
C1464      H1470   1.045       .  S
C1465      H1471   1.085       .  S
C1465      C1466   1.381       .  D
C1467      H1472   1.084       .  S
C1467      C1468   1.369       .  D
C1468      C2019   1.517   1_545  S
In1473     O1475   2.259       .  S
In1473     O1476   2.245       .  S
In1473     O1484   2.231       .  S
In1473     O1478   2.251       .  S
In1473     O1480   2.315       .  S
In1473     O1481   2.244       .  S
In1473     O1482   2.253       .  S
In1473     O1485   2.259       .  S
C1474      O1480   1.264       .  A
C1474      O1482   1.257       .  A
C1474      C2144   1.487   1_545  S
O1475      C1483   1.264       .  A
O1476      C1483   1.259       .  A
C1477      O1484   1.258       .  A
C1477      O1478   1.260       .  A
C1477      C1490   1.459       .  S
C1479      O1481   1.259       .  A
C1479      O1485   1.264       .  A
In1486     O1488   2.259       .  S
In1486     O1489   2.245       .  S
In1486     O1497   2.230       .  S
In1486     O1491   2.251       .  S
In1486     O1493   2.315       .  S
In1486     O1494   2.244       .  S
In1486     O1495   2.251       .  S
In1486     O1498   2.260       .  S
C1487      O1493   1.264       .  A
C1487      O1495   1.257       .  A
O1488      C1496   1.264       .  A
O1489      C1496   1.259       .  A
C1490      O1497   1.258       .  A
C1490      O1491   1.260       .  A
C1492      O1494   1.259       .  A
C1492      O1498   1.264       .  A
C1496      C1681   1.506       .  S
In1499     O1501   2.260       .  S
In1499     O1502   2.244       .  S
In1499     O1510   2.228       .  S
In1499     O1504   2.249       .  S
In1499     O1506   2.315       .  S
In1499     O1507   2.244       .  S
In1499     O1508   2.253       .  S
In1499     O1511   2.258       .  S
C1500      O1506   1.264       .  A
C1500      O1508   1.257       .  A
O1501      C1509   1.264       .  A
O1502      C1509   1.259       .  A
C1503      O1510   1.258       .  A
C1503      O1504   1.260       .  A
C1503      C1516   1.458       .  S
C1505      C1717   1.505       .  S
C1505      O1507   1.259       .  A
C1505      O1511   1.264       .  A
In1512     O1514   2.258       .  S
In1512     O1515   2.243       .  S
In1512     O1523   2.228       .  S
In1512     O1517   2.249       .  S
In1512     O1519   2.315       .  S
In1512     O1520   2.244       .  S
In1512     O1521   2.252       .  S
In1512     O1524   2.259       .  S
C1513      O1519   1.264       .  A
C1513      O1521   1.257       .  A
C1513      C2131   1.486   1_545  S
O1514      C1522   1.264       .  A
O1515      C1522   1.259       .  A
C1516      O1523   1.258       .  A
C1516      O1517   1.260       .  A
C1518      O1520   1.259       .  A
C1518      O1524   1.263       .  A
In1525     O1527   2.259       .  S
In1525     O1528   2.244       .  S
In1525     O1536   2.229       .  S
In1525     O1530   2.250       .  S
In1525     O1532   2.315       .  S
In1525     O1533   2.244       .  S
In1525     O1534   2.252       .  S
In1525     O1537   2.258       .  S
C1526      O1532   1.264       .  A
C1526      O1534   1.257       .  A
O1527      C1535   1.264       .  A
O1528      C1535   1.259       .  A
C1529      O1536   1.258       .  A
C1529      O1530   1.260       .  A
C1529      C1542   1.458       .  S
C1531      O1533   1.259       .  A
C1531      O1537   1.264       .  A
C1535      C1705   1.506       .  S
In1538     O1540   2.259       .  S
In1538     O1541   2.244       .  S
In1538     O1549   2.229       .  S
In1538     O1543   2.250       .  S
In1538     O1545   2.315       .  S
In1538     O1546   2.245       .  S
In1538     O1547   2.252       .  S
In1538     O1550   2.259       .  S
C1539      O1545   1.264       .  A
C1539      O1547   1.257       .  A
C1539      C2105   1.486       .  S
O1540      C1548   1.264       .  A
O1541      C1548   1.259       .  A
C1542      O1549   1.258       .  A
C1542      O1543   1.260       .  A
C1544      O1546   1.259       .  A
C1544      O1550   1.264       .  A
In1551     O1553   2.260       .  S
In1551     O1554   2.245       .  S
In1551     O1562   2.231       .  S
In1551     O1556   2.252       .  S
In1551     O1558   2.315       .  S
In1551     O1559   2.245       .  S
In1551     O1560   2.253       .  S
In1551     O1563   2.258       .  S
C1552      O1558   1.264       .  A
C1552      O1560   1.257       .  A
C1552      C2066   1.487       .  S
O1553      C1561   1.263       .  A
O1554      C1561   1.259       .  A
C1555      O1562   1.258       .  A
C1555      O1556   1.260       .  A
C1555      C1568   1.460       .  S
C1557      O1559   1.259       .  A
C1557      O1563   1.264       .  A
In1564     O1566   2.258       .  S
In1564     O1567   2.245       .  S
In1564     O1575   2.231       .  S
In1564     O1569   2.251       .  S
In1564     O1571   2.315       .  S
In1564     O1572   2.245       .  S
In1564     O1573   2.253       .  S
In1564     O1576   2.260       .  S
C1565      O1571   1.264       .  A
C1565      O1573   1.257       .  A
O1566      C1574   1.264       .  A
O1567      C1574   1.259       .  A
C1568      O1575   1.258       .  A
C1568      O1569   1.260       .  A
C1570      C1693   1.506       .  S
C1570      O1572   1.259       .  A
C1570      O1576   1.264       .  A
In1577     O1579   2.259   1_554  S
In1577     O1580   2.245   1_554  S
In1577     O1588   2.230       .  S
In1577     O1582   2.250       .  S
In1577     O1584   2.315       .  S
In1577     O1585   2.244       .  S
In1577     O1586   2.252       .  S
In1577     O1589   2.259       .  S
C1578      O1584   1.264       .  A
C1578      O1586   1.257       .  A
C1578      C1617   1.486       .  S
O1579      C1587   1.263       .  A
O1580      C1587   1.259       .  A
C1581      O1588   1.258       .  A
C1581      O1582   1.260       .  A
C1581      C1594   1.459       .  S
C1583      O1585   1.259       .  A
C1583      O1589   1.264       .  A
C1587      C1729   1.506       .  S
In1590     O1592   2.258       .  S
In1590     O1593   2.244       .  S
In1590     O1601   2.229       .  S
In1590     O1595   2.250       .  S
In1590     O1597   2.315       .  S
In1590     O1598   2.243   1_554  S
In1590     O1599   2.253       .  S
In1590     O1602   2.260   1_554  S
C1591      O1597   1.264       .  A
C1591      O1599   1.257       .  A
C1591      C1643   1.487       .  S
O1592      C1600   1.264       .  A
O1593      C1600   1.259       .  A
C1594      O1601   1.258       .  A
C1594      O1595   1.260       .  A
C1596      O1598   1.259       .  A
C1596      O1602   1.264       .  A
In1603     O1605   2.258   1_554  S
In1603     O1606   2.245   1_554  S
In1603     O1614   2.229       .  S
In1603     O1608   2.249       .  S
In1603     O1610   2.314       .  S
In1603     O1611   2.245       .  S
In1603     O1612   2.253       .  S
In1603     O1615   2.260       .  S
C1604      O1610   1.264       .  A
C1604      O1612   1.257       .  A
C1604      C1669   1.486       .  S
O1605      C1613   1.264       .  A
O1606      C1613   1.259       .  A
C1607      O1614   1.258       .  A
C1607      O1608   1.260       .  A
C1607      C1620   1.458       .  S
C1609      O1611   1.259       .  A
C1609      O1615   1.263       .  A
In1616     O1618   2.260       .  S
In1616     O1619   2.243       .  S
In1616     O1627   2.228       .  S
In1616     O1621   2.250       .  S
In1616     O1623   2.315       .  S
In1616     O1624   2.243   1_554  S
In1616     O1625   2.252       .  S
In1616     O1628   2.258   1_554  S
C1617      O1623   1.264       .  A
C1617      O1625   1.257       .  A
O1618      C1626   1.264       .  A
O1619      C1626   1.259       .  A
C1620      O1627   1.258       .  A
C1620      O1621   1.260       .  A
C1622      C1741   1.505       .  S
C1622      O1624   1.259       .  A
C1622      O1628   1.264       .  A
In1629     O1631   2.258       .  S
In1629     O1632   2.244       .  S
In1629     O1640   2.231       .  S
In1629     O1634   2.252       .  S
In1629     O1636   2.315       .  S
In1629     O1637   2.245   1_554  S
In1629     O1638   2.253       .  S
In1629     O1641   2.260   1_554  S
C1630      O1636   1.264       .  A
C1630      O1638   1.257       .  A
C1630      C1656   1.487       .  S
O1631      C1639   1.264       .  A
O1632      C1639   1.259       .  A
C1633      O1640   1.258       .  A
C1633      O1634   1.260       .  A
C1633      C1646   1.460       .  S
C1635      C1765   1.506       .  S
C1635      O1637   1.259       .  A
C1635      O1641   1.264       .  A
In1642     O1644   2.260   1_554  S
In1642     O1645   2.246   1_554  S
In1642     O1653   2.232       .  S
In1642     O1647   2.252       .  S
In1642     O1649   2.315       .  S
In1642     O1650   2.246       .  S
In1642     O1651   2.253       .  S
In1642     O1654   2.258       .  S
C1643      O1649   1.264       .  A
C1643      O1651   1.257       .  A
O1644      C1652   1.263       .  A
O1645      C1652   1.259       .  A
C1646      O1653   1.258       .  A
C1646      O1647   1.260       .  A
C1648      O1650   1.259       .  A
C1648      O1654   1.264       .  A
In1655     O1657   2.259   1_554  S
In1655     O1658   2.245   1_554  S
In1655     O1666   2.231       .  S
In1655     O1660   2.251       .  S
In1655     O1662   2.315       .  S
In1655     O1663   2.246       .  S
In1655     O1664   2.254       .  S
In1655     O1667   2.259       .  S
C1656      O1662   1.264       .  A
C1656      O1664   1.257       .  A
O1657      C1665   1.264       .  A
O1658      C1665   1.259       .  A
C1659      O1666   1.258       .  A
C1659      O1660   1.260       .  A
C1659      C1672   1.459       .  S
C1661      O1663   1.259       .  A
C1661      O1667   1.263       .  A
C1665      C1753   1.506       .  S
In1668     O1670   2.260       .  S
In1668     O1671   2.244       .  S
In1668     O1679   2.230       .  S
In1668     O1673   2.252       .  S
In1668     O1675   2.315       .  S
In1668     O1676   2.244   1_554  S
In1668     O1677   2.252       .  S
In1668     O1680   2.258   1_554  S
C1669      O1675   1.264       .  A
C1669      O1677   1.257       .  A
O1670      C1678   1.264       .  A
O1671      C1678   1.259       .  A
C1672      O1679   1.258       .  A
C1672      O1673   1.260       .  A
C1674      O1676   1.259       .  A
C1674      O1680   1.264       .  A
C1681      C1682   1.553       .  S
C1681      C1687   1.532       .  S
C1681      C1685   1.556       .  S
C1682      H1689   1.084       .  S
C1682      C1683   1.369       .  D
C1683      C1684   1.539       .  S
C1683      C1700   1.517       .  S
C1684      C1688   1.525       .  S
C1684      C1686   1.548       .  S
C1684      H1690   1.045       .  S
C1685      H1691   1.085       .  S
C1685      C1686   1.381       .  D
C1686      C1758   1.522       .  S
C1687      H1692   1.081       .  S
C1687      C1688   1.349       .  D
C1693      C1694   1.533       .  S
C1693      C1699   1.553       .  S
C1693      C1697   1.557       .  S
C1694      H1701   1.081       .  S
C1694      C1695   1.349       .  D
C1695      C1696   1.525       .  S
C1696      C1700   1.540       .  S
C1696      C1698   1.549       .  S
C1696      H1702   1.045       .  S
C1697      H1703   1.085       .  S
C1697      C1698   1.382       .  D
C1698      C1770   1.523       .  S
C1699      H1704   1.084       .  S
C1699      C1700   1.368       .  D
C1705      C1706   1.552       .  S
C1705      C1711   1.533       .  S
C1705      C1709   1.557       .  S
C1706      H1713   1.085       .  S
C1706      C1707   1.368       .  D
C1707      C1708   1.540       .  S
C1707      C1724   1.516       .  S
C1708      C1712   1.525       .  S
C1708      C1710   1.549       .  S
C1708      H1714   1.045       .  S
C1709      H1715   1.085       .  S
C1709      C1710   1.381       .  D
C1710      C1734   1.523       .  S
C1711      H1716   1.081       .  S
C1711      C1712   1.349       .  D
C1717      C1718   1.532       .  S
C1717      C1723   1.553       .  S
C1717      C1721   1.556       .  S
C1718      H1725   1.081       .  S
C1718      C1719   1.349       .  D
C1719      C1720   1.525       .  S
C1720      C1724   1.539       .  S
C1720      C1722   1.548       .  S
C1720      H1726   1.045       .  S
C1721      H1727   1.085       .  S
C1721      C1722   1.381       .  D
C1722      C1746   1.522       .  S
C1723      H1728   1.084       .  S
C1723      C1724   1.369       .  D
C1729      C1730   1.553       .  S
C1729      C1735   1.532       .  S
C1729      C1733   1.557       .  S
C1730      H1737   1.085       .  S
C1730      C1731   1.369       .  D
C1731      C1732   1.539       .  S
C1732      C1736   1.525       .  S
C1732      C1734   1.549       .  S
C1732      H1738   1.045       .  S
C1733      H1739   1.085       .  S
C1733      C1734   1.381       .  D
C1735      H1740   1.081       .  S
C1735      C1736   1.349       .  D
C1736      C1743   1.504       .  S
C1741      C1742   1.532       .  S
C1741      C1747   1.553       .  S
C1741      C1745   1.556       .  S
C1742      H1749   1.081       .  S
C1742      C1743   1.349       .  D
C1743      C1744   1.525       .  S
C1744      C1748   1.539       .  S
C1744      C1746   1.549       .  S
C1744      H1750   1.045       .  S
C1745      H1751   1.085       .  S
C1745      C1746   1.381       .  D
C1747      H1752   1.084       .  S
C1747      C1748   1.369       .  D
C1753      C1754   1.553       .  S
C1753      C1759   1.533       .  S
C1753      C1757   1.556       .  S
C1754      H1761   1.084       .  S
C1754      C1755   1.369       .  D
C1755      C1756   1.540       .  S
C1756      C1760   1.525       .  S
C1756      C1758   1.549       .  S
C1756      H1762   1.045       .  S
C1757      H1763   1.085       .  S
C1757      C1758   1.381       .  D
C1759      H1764   1.081       .  S
C1759      C1760   1.349       .  D
C1760      C1767   1.504       .  S
C1765      C1766   1.533       .  S
C1765      C1771   1.552       .  S
C1765      C1769   1.557       .  S
C1766      H1773   1.081       .  S
C1766      C1767   1.349       .  D
C1767      C1768   1.525       .  S
C1768      C1772   1.540       .  S
C1768      C1770   1.549       .  S
C1768      H1774   1.045       .  S
C1769      H1775   1.085       .  S
C1769      C1770   1.382       .  D
C1771      H1776   1.085       .  S
C1771      C1772   1.368       .  D
C1777      C1778   1.553       .  S
C1777      C1783   1.532       .  S
C1777      C1781   1.557       .  S
C1777      C2075   1.506       .  S
C1778      H1785   1.085       .  S
C1778      C1779   1.369       .  D
C1779      C1780   1.539       .  S
C1779      C1796   1.516       .  S
C1780      C1784   1.525       .  S
C1780      C1782   1.549       .  S
C1780      H1786   1.045       .  S
C1781      H1787   1.085       .  S
C1781      C1782   1.381       .  D
C1782      C1854   1.523       .  S
C1783      H1788   1.081       .  S
C1783      C1784   1.349       .  D
C1789      C1790   1.533       .  S
C1789      C1795   1.552       .  S
C1789      C1793   1.557       .  S
C1789      C2110   1.506       .  S
C1790      H1797   1.081       .  S
C1790      C1791   1.349       .  D
C1791      C1792   1.525       .  S
C1792      C1796   1.540       .  S
C1792      C1794   1.549       .  S
C1792      H1798   1.045       .  S
C1793      H1799   1.085       .  S
C1793      C1794   1.381       .  D
C1794      C1866   1.523       .  S
C1795      H1800   1.085       .  S
C1795      C1796   1.368       .  D
C1801      C1802   1.553       .  S
C1801      C1807   1.533       .  S
C1801      C1805   1.556       .  S
C1801      C2140   1.506       .  S
C1802      H1809   1.084       .  S
C1802      C1803   1.369       .  D
C1803      C1804   1.539       .  S
C1803      C1820   1.516       .  S
C1804      C1808   1.525       .  S
C1804      C1806   1.549       .  S
C1804      H1810   1.045       .  S
C1805      H1811   1.085       .  S
C1805      C1806   1.381       .  D
C1806      C1830   1.522       .  S
C1807      H1812   1.081       .  S
C1807      C1808   1.349       .  D
C1813      C1814   1.532       .  S
C1813      C1819   1.553       .  S
C1813      C1817   1.556       .  S
C1813      C2149   1.506       .  S
C1814      H1821   1.081       .  S
C1814      C1815   1.349       .  D
C1815      C1816   1.525       .  S
C1816      C1820   1.540       .  S
C1816      C1818   1.548       .  S
C1816      H1822   1.045       .  S
C1817      H1823   1.085       .  S
C1817      C1818   1.381       .  D
C1818      C1842   1.522       .  S
C1819      H1824   1.084       .  S
C1819      C1820   1.369       .  D
C1825      C1826   1.553       .  S
C1825      C1831   1.532       .  S
C1825      C1829   1.556       .  S
C1825      C2192   1.505       .  S
C1826      H1833   1.085       .  S
C1826      C1827   1.369       .  D
C1827      C1828   1.539       .  S
C1828      C1832   1.525       .  S
C1828      C1830   1.549       .  S
C1828      H1834   1.045       .  S
C1829      H1835   1.085       .  S
C1829      C1830   1.381       .  D
C1831      H1836   1.081       .  S
C1831      C1832   1.349       .  D
C1832      C1839   1.503       .  S
C1837      C1838   1.532       .  S
C1837      C1843   1.553       .  S
C1837      C1841   1.556       .  S
C1837      C2240   1.506       .  S
C1838      H1845   1.081       .  S
C1838      C1839   1.349       .  D
C1839      C1840   1.525       .  S
C1840      C1844   1.540       .  S
C1840      C1842   1.549       .  S
C1840      H1846   1.045       .  S
C1841      H1847   1.085       .  S
C1841      C1842   1.381       .  D
C1843      H1848   1.084       .  S
C1843      C1844   1.369       .  D
C1849      C1850   1.553       .  S
C1849      C1855   1.533       .  S
C1849      C1853   1.557       .  S
C1849      C2270   1.506       .  S
C1850      H1857   1.084       .  S
C1850      C1851   1.368       .  D
C1851      C1852   1.540       .  S
C1852      C1856   1.525       .  S
C1852      C1854   1.549       .  S
C1852      H1858   1.045       .  S
C1853      H1859   1.085       .  S
C1853      C1854   1.381       .  D
C1855      H1860   1.081       .  S
C1855      C1856   1.349       .  D
C1856      C1863   1.504       .  S
C1861      C1862   1.533       .  S
C1861      C1867   1.552       .  S
C1861      C1865   1.557       .  S
C1861      C2201   1.506       .  S
C1862      H1869   1.081       .  S
C1862      C1863   1.349       .  D
C1863      C1864   1.525       .  S
C1864      C1868   1.540       .  S
C1864      C1866   1.549       .  S
C1864      H1870   1.045       .  S
C1865      H1871   1.085       .  S
C1865      C1866   1.382       .  D
C1867      H1872   1.085       .  S
C1867      C1868   1.368       .  D
C1873      C1874   1.553       .  S
C1873      C1879   1.533       .  S
C1873      C1877   1.557       .  S
C1873      C2101   1.506       .  S
C1874      H1881   1.085       .  S
C1874      C1875   1.368       .  D
C1875      C1876   1.540       .  S
C1875      C1892   1.516       .  S
C1876      C1880   1.525       .  S
C1876      C1878   1.549       .  S
C1876      H1882   1.045       .  S
C1877      H1883   1.085       .  S
C1877      C1878   1.382       .  D
C1878      C1926   1.523       .  S
C1879      H1884   1.081       .  S
C1879      C1880   1.349       .  D
C1885      C1886   1.532       .  S
C1885      C1891   1.553       .  S
C1885      C1889   1.556       .  S
C1885      C2123   1.505       .  S
C1886      H1893   1.081       .  S
C1886      C1887   1.349       .  D
C1887      C1888   1.525       .  S
C1888      C1892   1.539       .  S
C1888      C1890   1.549       .  S
C1888      H1894   1.045       .  S
C1889      H1895   1.085       .  S
C1889      C1890   1.381       .  D
C1890      C1938   1.522       .  S
C1891      H1896   1.085       .  S
C1891      C1892   1.369       .  D
C1897      C1898   1.533       .  S
C1897      C1903   1.553       .  S
C1897      C1901   1.557       .  S
C1897      C2084   1.506       .  S
C1898      H1905   1.081       .  S
C1898      C1899   1.349       .  D
C1899      C1900   1.525       .  S
C1900      C1904   1.540       .  S
C1900      C1902   1.549       .  S
C1900      H1906   1.045       .  S
C1901      H1907   1.085       .  S
C1901      C1902   1.381       .  D
C1902      C1962   1.523       .  S
C1903      H1908   1.084       .  S
C1903      C1904   1.368       .  D
C1904      C1911   1.517       .  S
C1909      C1910   1.553       .  S
C1909      C1915   1.532       .  S
C1909      C1913   1.556       .  S
C1909      C2166   1.506       .  S
C1910      H1917   1.084       .  S
C1910      C1911   1.369       .  D
C1911      C1912   1.539       .  S
C1912      C1916   1.525       .  S
C1912      C1914   1.548       .  S
C1912      H1918   1.045       .  S
C1913      H1919   1.085       .  S
C1913      C1914   1.381       .  D
C1914      C1950   1.522       .  S
C1915      H1920   1.081       .  S
C1915      C1916   1.349       .  D
C1921      C1922   1.553       .  S
C1921      C1927   1.532       .  S
C1921      C1925   1.557       .  S
C1921      C2218   1.506       .  S
C1922      H1929   1.085       .  S
C1922      C1923   1.368       .  D
C1923      C1924   1.540       .  S
C1924      C1928   1.525       .  S
C1924      C1926   1.549       .  S
C1924      H1930   1.045       .  S
C1925      H1931   1.085       .  S
C1925      C1926   1.381       .  D
C1927      H1932   1.081       .  S
C1927      C1928   1.349       .  D
C1928      C1935   1.504       .  S
C1933      C1934   1.533       .  S
C1933      C1939   1.553       .  S
C1933      C1937   1.556       .  S
C1933      C2175   1.506       .  S
C1934      H1941   1.081       .  S
C1934      C1935   1.349       .  D
C1935      C1936   1.525       .  S
C1936      C1940   1.540       .  S
C1936      C1938   1.549       .  S
C1936      H1942   1.045       .  S
C1937      H1943   1.085       .  S
C1937      C1938   1.381       .  D
C1939      H1944   1.084       .  S
C1939      C1940   1.369       .  D
C1945      C1946   1.553       .  S
C1945      C1951   1.532       .  S
C1945      C1949   1.556       .  S
C1945      C2231   1.506       .  S
C1946      H1953   1.084       .  S
C1946      C1947   1.369       .  D
C1947      C1948   1.539       .  S
C1948      C1952   1.525       .  S
C1948      C1950   1.549       .  S
C1948      H1954   1.045       .  S
C1949      H1955   1.085       .  S
C1949      C1950   1.381       .  D
C1951      H1956   1.081       .  S
C1951      C1952   1.349       .  D
C1952      C1959   1.504       .  S
C1957      C1958   1.532       .  S
C1957      C1963   1.553       .  S
C1957      C1961   1.557       .  S
C1957      C2253   1.506       .  S
C1958      H1965   1.081       .  S
C1958      C1959   1.349       .  D
C1959      C1960   1.525       .  S
C1960      C1964   1.539       .  S
C1960      C1962   1.549       .  S
C1960      H1966   1.045       .  S
C1961      H1967   1.085       .  S
C1961      C1962   1.381       .  D
C1963      H1968   1.085       .  S
C1963      C1964   1.369       .  D
C1969      C1970   1.552       .  S
C1969      C1975   1.533       .  S
C1969      C1973   1.557       .  S
C1969      C2153   1.506       .  S
C1970      H1977   1.085       .  S
C1970      C1971   1.368       .  D
C1971      C1972   1.540       .  S
C1971      C1988   1.517       .  S
C1972      C1976   1.525       .  S
C1972      C1974   1.549       .  S
C1972      H1978   1.045       .  S
C1973      H1979   1.085       .  S
C1973      C1974   1.381       .  D
C1974      C2022   1.523       .  S
C1975      H1980   1.081       .  S
C1975      C1976   1.349       .  D
C1981      C1982   1.532       .  S
C1981      C1987   1.553       .  S
C1981      C1985   1.557       .  S
C1981      C2136   1.506       .  S
C1982      H1989   1.081       .  S
C1982      C1983   1.349       .  D
C1983      C1984   1.525       .  S
C1984      C1988   1.539       .  S
C1984      C1986   1.549       .  S
C1984      H1990   1.045       .  S
C1985      H1991   1.085       .  S
C1985      C1986   1.381       .  D
C1986      C2034   1.522       .  S
C1987      H1992   1.085       .  S
C1987      C1988   1.369       .  D
C1993      C1994   1.533       .  S
C1993      C1999   1.553       .  S
C1993      C1997   1.557       .  S
C1993      C2071   1.506       .  S
C1994      H2001   1.081       .  S
C1994      C1995   1.349       .  D
C1995      C1996   1.525       .  S
C1996      C2000   1.539       .  S
C1996      C1998   1.549       .  S
C1996      H2002   1.045       .  S
C1997      H2003   1.085       .  S
C1997      C1998   1.381       .  D
C1998      C2058   1.522       .  S
C1999      H2004   1.084       .  S
C1999      C2000   1.369       .  D
C2000      C2007   1.516       .  S
C2005      C2006   1.553       .  S
C2005      C2011   1.532       .  S
C2005      C2009   1.556       .  S
C2005      C2114   1.505       .  S
C2006      H2013   1.084       .  S
C2006      C2007   1.369       .  D
C2007      C2008   1.540       .  S
C2008      C2012   1.525       .  S
C2008      C2010   1.549       .  S
C2008      H2014   1.045       .  S
C2009      H2015   1.085       .  S
C2009      C2010   1.381       .  D
C2010      C2046   1.522       .  S
C2011      H2016   1.081       .  S
C2011      C2012   1.349       .  D
C2017      C2018   1.553       .  S
C2017      C2023   1.533       .  S
C2017      C2021   1.557       .  S
C2017      C2244   1.507       .  S
C2018      H2025   1.085       .  S
C2018      C2019   1.368       .  D
C2019      C2020   1.540       .  S
C2020      C2024   1.525       .  S
C2020      C2022   1.549       .  S
C2020      H2026   1.045       .  S
C2021      H2027   1.085       .  S
C2021      C2022   1.382       .  D
C2023      H2028   1.081       .  S
C2023      C2024   1.349       .  D
C2024      C2031   1.504       .  S
C2029      C2030   1.533       .  S
C2029      C2035   1.552       .  S
C2029      C2033   1.557       .  S
C2029      C2188   1.506       .  S
C2030      H2037   1.081       .  S
C2030      C2031   1.349       .  D
C2031      C2032   1.525       .  S
C2032      C2036   1.540       .  S
C2032      C2034   1.549       .  S
C2032      H2038   1.045       .  S
C2033      H2039   1.085       .  S
C2033      C2034   1.381       .  D
C2035      H2040   1.084       .  S
C2035      C2036   1.368       .  D
C2041      C2042   1.553       .  S
C2041      C2047   1.532       .  S
C2041      C2045   1.556       .  S
C2041      C2205   1.505       .  S
C2042      H2049   1.084       .  S
C2042      C2043   1.369       .  D
C2043      C2044   1.539       .  S
C2044      C2048   1.525       .  S
C2044      C2046   1.548       .  S
C2044      H2050   1.045       .  S
C2045      H2051   1.085       .  S
C2045      C2046   1.381       .  D
C2047      H2052   1.081       .  S
C2047      C2048   1.349       .  D
C2048      C2055   1.503       .  S
C2053      C2054   1.532       .  S
C2053      C2059   1.553       .  S
C2053      C2057   1.556       .  S
C2053      C2266   1.506       .  S
C2054      H2061   1.081       .  S
C2054      C2055   1.349       .  D
C2055      C2056   1.525       .  S
C2056      C2060   1.539       .  S
C2056      C2058   1.549       .  S
C2056      H2062   1.045       .  S
C2057      H2063   1.085       .  S
C2057      C2058   1.381       .  D
C2059      H2064   1.084       .  S
C2059      C2060   1.369       .  D
In2065     O2067   2.259       .  S
In2065     O2068   2.245       .  S
In2065     O2076   2.231       .  S
In2065     O2070   2.251       .  S
In2065     O2072   2.315       .  S
In2065     O2073   2.244       .  S
In2065     O2074   2.253       .  S
In2065     O2077   2.259       .  S
C2066      O2072   1.264       .  A
C2066      O2074   1.257       .  A
O2067      C2075   1.264       .  A
O2068      C2075   1.259       .  A
C2069      O2076   1.258       .  A
C2069      O2070   1.260       .  A
C2069      C2082   1.459       .  S
C2071      O2073   1.259       .  A
C2071      O2077   1.264       .  A
In2078     O2080   2.259       .  S
In2078     O2081   2.245       .  S
In2078     O2089   2.230       .  S
In2078     O2083   2.251       .  S
In2078     O2085   2.315       .  S
In2078     O2086   2.244       .  S
In2078     O2087   2.251       .  S
In2078     O2090   2.260       .  S
C2079      O2085   1.264       .  A
C2079      O2087   1.257       .  A
O2080      C2088   1.264       .  A
O2081      C2088   1.259       .  A
C2082      O2089   1.258       .  A
C2082      O2083   1.260       .  A
C2084      O2086   1.259       .  A
C2084      O2090   1.264       .  A
C2088      C2273   1.506       .  S
In2091     O2093   2.260       .  S
In2091     O2094   2.244       .  S
In2091     O2102   2.228       .  S
In2091     O2096   2.249       .  S
In2091     O2098   2.315       .  S
In2091     O2099   2.244       .  S
In2091     O2100   2.253       .  S
In2091     O2103   2.258       .  S
C2092      O2098   1.264       .  A
C2092      O2100   1.257       .  A
O2093      C2101   1.264       .  A
O2094      C2101   1.259       .  A
C2095      O2102   1.258       .  A
C2095      O2096   1.260       .  A
C2095      C2108   1.458       .  S
C2097      C2309   1.505       .  S
C2097      O2099   1.259       .  A
C2097      O2103   1.264       .  A
In2104     O2106   2.258       .  S
In2104     O2107   2.243       .  S
In2104     O2115   2.228       .  S
In2104     O2109   2.249       .  S
In2104     O2111   2.315       .  S
In2104     O2112   2.244       .  S
In2104     O2113   2.252       .  S
In2104     O2116   2.259       .  S
C2105      O2111   1.264       .  A
C2105      O2113   1.257       .  A
O2106      C2114   1.264       .  A
O2107      C2114   1.259       .  A
C2108      O2115   1.258       .  A
C2108      O2109   1.260       .  A
C2110      O2112   1.259       .  A
C2110      O2116   1.263       .  A
In2117     O2119   2.259       .  S
In2117     O2120   2.244       .  S
In2117     O2128   2.229       .  S
In2117     O2122   2.250       .  S
In2117     O2124   2.315       .  S
In2117     O2125   2.244       .  S
In2117     O2126   2.252       .  S
In2117     O2129   2.258       .  S
C2118      O2124   1.264       .  A
C2118      O2126   1.257       .  A
O2119      C2127   1.264       .  A
O2120      C2127   1.259       .  A
C2121      O2128   1.258       .  A
C2121      O2122   1.260       .  A
C2121      C2134   1.458       .  S
C2123      O2125   1.259       .  A
C2123      O2129   1.264       .  A
C2127      C2297   1.506       .  S
In2130     O2132   2.259       .  S
In2130     O2133   2.244       .  S
In2130     O2141   2.229       .  S
In2130     O2135   2.250       .  S
In2130     O2137   2.315       .  S
In2130     O2138   2.245       .  S
In2130     O2139   2.252       .  S
In2130     O2142   2.259       .  S
C2131      O2137   1.264       .  A
C2131      O2139   1.257       .  A
O2132      C2140   1.264       .  A
O2133      C2140   1.259       .  A
C2134      O2141   1.258       .  A
C2134      O2135   1.260       .  A
C2136      O2138   1.259       .  A
C2136      O2142   1.264       .  A
In2143     O2145   2.260       .  S
In2143     O2146   2.245       .  S
In2143     O2154   2.231       .  S
In2143     O2148   2.252       .  S
In2143     O2150   2.315       .  S
In2143     O2151   2.245       .  S
In2143     O2152   2.253       .  S
In2143     O2155   2.258       .  S
C2144      O2150   1.264       .  A
C2144      O2152   1.257       .  A
O2145      C2153   1.263       .  A
O2146      C2153   1.259       .  A
C2147      O2154   1.258       .  A
C2147      O2148   1.260       .  A
C2147      C2160   1.460       .  S
C2149      O2151   1.259       .  A
C2149      O2155   1.264       .  A
In2156     O2158   2.258       .  S
In2156     O2159   2.245       .  S
In2156     O2167   2.231       .  S
In2156     O2161   2.251       .  S
In2156     O2163   2.315       .  S
In2156     O2164   2.245       .  S
In2156     O2165   2.253       .  S
In2156     O2168   2.260       .  S
C2157      O2163   1.264       .  A
C2157      O2165   1.257       .  A
O2158      C2166   1.264       .  A
O2159      C2166   1.259       .  A
C2160      O2167   1.258       .  A
C2160      O2161   1.260       .  A
C2162      C2285   1.506       .  S
C2162      O2164   1.259       .  A
C2162      O2168   1.264       .  A
In2169     O2171   2.259   1_554  S
In2169     O2172   2.245   1_554  S
In2169     O2180   2.230       .  S
In2169     O2174   2.250       .  S
In2169     O2176   2.315       .  S
In2169     O2177   2.244       .  S
In2169     O2178   2.252       .  S
In2169     O2181   2.259       .  S
C2170      O2176   1.264       .  A
C2170      O2178   1.257       .  A
C2170      C2209   1.486       .  S
O2171      C2179   1.263       .  A
O2172      C2179   1.259       .  A
C2173      O2180   1.258       .  A
C2173      O2174   1.260       .  A
C2173      C2186   1.459       .  S
C2175      O2177   1.259       .  A
C2175      O2181   1.264       .  A
C2179      C2321   1.506       .  S
In2182     O2184   2.258       .  S
In2182     O2185   2.244       .  S
In2182     O2193   2.229       .  S
In2182     O2187   2.250       .  S
In2182     O2189   2.315       .  S
In2182     O2190   2.243   1_554  S
In2182     O2191   2.253       .  S
In2182     O2194   2.260   1_554  S
C2183      O2189   1.264       .  A
C2183      O2191   1.257       .  A
C2183      C2235   1.487       .  S
O2184      C2192   1.264       .  A
O2185      C2192   1.259       .  A
C2186      O2193   1.258       .  A
C2186      O2187   1.260       .  A
C2188      O2190   1.259       .  A
C2188      O2194   1.264       .  A
In2195     O2197   2.258   1_554  S
In2195     O2198   2.245   1_554  S
In2195     O2206   2.229       .  S
In2195     O2200   2.249       .  S
In2195     O2202   2.314       .  S
In2195     O2203   2.245       .  S
In2195     O2204   2.253       .  S
In2195     O2207   2.260       .  S
C2196      O2202   1.264       .  A
C2196      O2204   1.257       .  A
C2196      C2261   1.486       .  S
O2197      C2205   1.264       .  A
O2198      C2205   1.259       .  A
C2199      O2206   1.258       .  A
C2199      O2200   1.260       .  A
C2199      C2212   1.458       .  S
C2201      O2203   1.259       .  A
C2201      O2207   1.263       .  A
In2208     O2210   2.260       .  S
In2208     O2211   2.243       .  S
In2208     O2219   2.228       .  S
In2208     O2213   2.250       .  S
In2208     O2215   2.315       .  S
In2208     O2216   2.243   1_554  S
In2208     O2217   2.252       .  S
In2208     O2220   2.258   1_554  S
C2209      O2215   1.264       .  A
C2209      O2217   1.257       .  A
O2210      C2218   1.264       .  A
O2211      C2218   1.259       .  A
C2212      O2219   1.258       .  A
C2212      O2213   1.260       .  A
C2214      C2333   1.505       .  S
C2214      O2216   1.259       .  A
C2214      O2220   1.264       .  A
In2221     O2223   2.258       .  S
In2221     O2224   2.244       .  S
In2221     O2232   2.231       .  S
In2221     O2226   2.252       .  S
In2221     O2228   2.315       .  S
In2221     O2229   2.245   1_554  S
In2221     O2230   2.253       .  S
In2221     O2233   2.260   1_554  S
C2222      O2228   1.264       .  A
C2222      O2230   1.257       .  A
C2222      C2248   1.487       .  S
O2223      C2231   1.264       .  A
O2224      C2231   1.259       .  A
C2225      O2232   1.258       .  A
C2225      O2226   1.260       .  A
C2225      C2238   1.460       .  S
C2227      C2357   1.506       .  S
C2227      O2229   1.259       .  A
C2227      O2233   1.264       .  A
In2234     O2236   2.260   1_554  S
In2234     O2237   2.246   1_554  S
In2234     O2245   2.232       .  S
In2234     O2239   2.252       .  S
In2234     O2241   2.315       .  S
In2234     O2242   2.246       .  S
In2234     O2243   2.253       .  S
In2234     O2246   2.258       .  S
C2235      O2241   1.264       .  A
C2235      O2243   1.257       .  A
O2236      C2244   1.263       .  A
O2237      C2244   1.259       .  A
C2238      O2245   1.258       .  A
C2238      O2239   1.260       .  A
C2240      O2242   1.259       .  A
C2240      O2246   1.264       .  A
In2247     O2249   2.259   1_554  S
In2247     O2250   2.245   1_554  S
In2247     O2258   2.231       .  S
In2247     O2252   2.251       .  S
In2247     O2254   2.315       .  S
In2247     O2255   2.246       .  S
In2247     O2256   2.254       .  S
In2247     O2259   2.259       .  S
C2248      O2254   1.264       .  A
C2248      O2256   1.257       .  A
O2249      C2257   1.264       .  A
O2250      C2257   1.259       .  A
C2251      O2258   1.258       .  A
C2251      O2252   1.260       .  A
C2251      C2264   1.459       .  S
C2253      O2255   1.259       .  A
C2253      O2259   1.263       .  A
C2257      C2345   1.506       .  S
In2260     O2262   2.260       .  S
In2260     O2263   2.244       .  S
In2260     O2271   2.230       .  S
In2260     O2265   2.252       .  S
In2260     O2267   2.315       .  S
In2260     O2268   2.244   1_554  S
In2260     O2269   2.252       .  S
In2260     O2272   2.258   1_554  S
C2261      O2267   1.264       .  A
C2261      O2269   1.257       .  A
O2262      C2270   1.264       .  A
O2263      C2270   1.259       .  A
C2264      O2271   1.258       .  A
C2264      O2265   1.260       .  A
C2266      O2268   1.259       .  A
C2266      O2272   1.264       .  A
C2273      C2274   1.553       .  S
C2273      C2279   1.532       .  S
C2273      C2277   1.556       .  S
C2274      H2281   1.084       .  S
C2274      C2275   1.369       .  D
C2275      C2276   1.539       .  S
C2275      C2292   1.517       .  S
C2276      C2280   1.525       .  S
C2276      C2278   1.548       .  S
C2276      H2282   1.045       .  S
C2277      H2283   1.085       .  S
C2277      C2278   1.381       .  D
C2278      C2350   1.522       .  S
C2279      H2284   1.081       .  S
C2279      C2280   1.349       .  D
C2285      C2286   1.533       .  S
C2285      C2291   1.553       .  S
C2285      C2289   1.557       .  S
C2286      H2293   1.081       .  S
C2286      C2287   1.349       .  D
C2287      C2288   1.525       .  S
C2288      C2292   1.540       .  S
C2288      C2290   1.549       .  S
C2288      H2294   1.045       .  S
C2289      H2295   1.085       .  S
C2289      C2290   1.382       .  D
C2290      C2362   1.523       .  S
C2291      H2296   1.084       .  S
C2291      C2292   1.368       .  D
C2297      C2298   1.552       .  S
C2297      C2303   1.533       .  S
C2297      C2301   1.557       .  S
C2298      H2305   1.085       .  S
C2298      C2299   1.368       .  D
C2299      C2300   1.540       .  S
C2299      C2316   1.516       .  S
C2300      C2304   1.525       .  S
C2300      C2302   1.549       .  S
C2300      H2306   1.045       .  S
C2301      H2307   1.085       .  S
C2301      C2302   1.381       .  D
C2302      C2326   1.523       .  S
C2303      H2308   1.081       .  S
C2303      C2304   1.349       .  D
C2309      C2310   1.532       .  S
C2309      C2315   1.553       .  S
C2309      C2313   1.556       .  S
C2310      H2317   1.081       .  S
C2310      C2311   1.349       .  D
C2311      C2312   1.525       .  S
C2312      C2316   1.539       .  S
C2312      C2314   1.548       .  S
C2312      H2318   1.045       .  S
C2313      H2319   1.085       .  S
C2313      C2314   1.381       .  D
C2314      C2338   1.522       .  S
C2315      H2320   1.084       .  S
C2315      C2316   1.369       .  D
C2321      C2322   1.553       .  S
C2321      C2327   1.532       .  S
C2321      C2325   1.557       .  S
C2322      H2329   1.085       .  S
C2322      C2323   1.369       .  D
C2323      C2324   1.539       .  S
C2324      C2328   1.525       .  S
C2324      C2326   1.549       .  S
C2324      H2330   1.045       .  S
C2325      H2331   1.085       .  S
C2325      C2326   1.381       .  D
C2327      H2332   1.081       .  S
C2327      C2328   1.349       .  D
C2328      C2335   1.504       .  S
C2333      C2334   1.532       .  S
C2333      C2339   1.553       .  S
C2333      C2337   1.556       .  S
C2334      H2341   1.081       .  S
C2334      C2335   1.349       .  D
C2335      C2336   1.525       .  S
C2336      C2340   1.539       .  S
C2336      C2338   1.549       .  S
C2336      H2342   1.045       .  S
C2337      H2343   1.085       .  S
C2337      C2338   1.381       .  D
C2339      H2344   1.084       .  S
C2339      C2340   1.369       .  D
C2345      C2346   1.553       .  S
C2345      C2351   1.533       .  S
C2345      C2349   1.556       .  S
C2346      H2353   1.084       .  S
C2346      C2347   1.369       .  D
C2347      C2348   1.540       .  S
C2348      C2352   1.525       .  S
C2348      C2350   1.549       .  S
C2348      H2354   1.045       .  S
C2349      H2355   1.085       .  S
C2349      C2350   1.381       .  D
C2351      H2356   1.081       .  S
C2351      C2352   1.349       .  D
C2352      C2359   1.504       .  S
C2357      C2358   1.533       .  S
C2357      C2363   1.552       .  S
C2357      C2361   1.557       .  S
C2358      H2365   1.081       .  S
C2358      C2359   1.349       .  D
C2359      C2360   1.525       .  S
C2360      C2364   1.540       .  S
C2360      C2362   1.549       .  S
C2360      H2366   1.045       .  S
C2361      H2367   1.085       .  S
C2361      C2362   1.382       .  D
C2363      H2368   1.085       .  S
C2363      C2364   1.368       .  D
