geometry optimzed in LAMMPS
_audit_creation_date              2020-11-30 
_audit_creation_method            'lammps2cif' 
_symmetry_space_group_name_H-M    'P1' 
_symmetry_Int_Tables_number       1 
_symmetry_cell_setting            triclinic 
loop_ 
_symmetry_equiv_pos_as_xyz 
  x,y,z 
_cell_length_a                    35.8476636 
_cell_length_b                    36.13938491693424 
_cell_length_c                    35.609053557716294 
_cell_angle_alpha                 90.43475071046707 
_cell_angle_beta                  89.78519210331856 
_cell_angle_gamma                 90.2239356611119 
loop_ 
_atom_site_label 
_atom_site_type_symbol 
_atom_site_fract_x 
_atom_site_fract_y 
_atom_site_fract_z 
_atom_site_charge 
Zr1        Zr  0.60775189  0.20460655  0.31330670     2.17500
O2          O  0.58625360  0.15543602  0.35492554    -0.52000
O3          O  0.57823147  0.16356024  0.26749945    -0.75200
O4          O  0.54678438  0.21800646  0.34339170    -0.82000
O5          O  0.71086167  0.18141546  0.33476030    -0.83700
O6          O  0.52433798  0.27112883  0.31865899    -0.79400
O7          O  0.65197348  0.15819672  0.33516977    -0.91000
O8          O  0.58434523  0.18756110  0.20925357    -0.77000
O9          O  0.58094839  0.24303680  0.26698948    -0.86500
O10         O  0.65015213  0.20173663  0.26124753    -0.86100
O11         O  0.60562401  0.26460444  0.34322620    -0.72900
O12         O  0.66678621  0.22816381  0.33409894    -0.85000
Zr13       Zr  0.67654261  0.32828725  0.26420143     2.26400
Zr14       Zr  0.57898078  0.30314670  0.29588392     2.06300
Zr15       Zr  0.70895928  0.22697621  0.28228734     2.10000
Zr16       Zr  0.62334102  0.24123967  0.21550507     1.78800
O17         O  0.77188807  0.23542298  0.30646472    -0.93800
O18         O  0.57057711  0.25831836  0.17634351    -0.41600
O19         O  0.67989073  0.26674913  0.23870035    -0.78300
O20         O  0.61792996  0.30208726  0.24114612    -0.97000
O21         O  0.63704533  0.32725915  0.31803490    -0.90300
O22         O  0.70651056  0.28866683  0.30885294    -0.93100
C23         C  0.57273672  0.16284792  0.23192162     1.00600
C24         C  0.68555094  0.15936151  0.34795246     1.13600
C25         C  0.52100600  0.24246572  0.33923964     1.04400
O26         O  0.52593314  0.31967138  0.25700562    -0.95300
O27         O  0.58510404  0.03510198  0.27869017    -0.91000
O28         O  0.63153176  0.03675339  0.23593048    -0.84200
C29         C  0.59907816  0.04653498  0.24786742     1.11000
O30         O  0.65705415  0.25587089  0.42186965    -0.97200
Zr31       Zr  0.66585810  0.28746473  0.36229208     1.88900
O32         O  0.68569580  0.04013380  0.31729077    -0.73900
O33         O  0.55460557  0.33734788  0.34977319    -0.53100
O34         O  0.63047128  0.32106531  0.40994816    -0.97800
O35         O  0.72303149  0.26640746  0.39208889    -0.55000
O36         O  0.70075564  0.34413192  0.36876838    -0.74400
C37         C  0.69420417  0.03854669  0.35259846     0.97900
O38         O  0.71811166  0.37668961  0.24125835    -0.63200
O39         O  0.73226172  0.17233962  0.24946079    -0.58000
O40         O  0.72572502  0.31240963  0.21719372    -0.94700
O41         O  0.74243939  0.25230397  0.22680751    -0.93100
O42         O  0.66077328  0.19946090  0.17694191    -0.93500
O43         O  0.64243163  0.26966098  0.15663978    -0.92300
C44         C  0.74504205  0.28325555  0.20873764     1.16800
H45         H  0.65289897  0.17668807  0.25199299     0.32700
H46         H  0.60574391  0.31413154  0.22046524     0.43600
H47         H  0.73090111  0.29805698  0.31531307     0.37100
H48         H  0.59008051  0.26458480  0.36547070     0.33600
H49         H  0.57053155  0.23997018  0.15553880     0.25400
H50         H  0.57261671  0.35781675  0.35385708     0.31300
H51         H  0.64938448  0.33019000  0.42803292     0.37200
H52         H  0.68577323  0.19981776  0.18866657     0.31700
H53         H  0.75834887  0.16988757  0.25810987     0.30600
H54         H  0.78086570  0.25865832  0.29490436     0.32200
H55         H  0.74013378  0.28797122  0.39188136     0.31200
H56         H  0.64542096  0.29627896  0.16275724     0.35200
H57         H  0.70475703  0.40013863  0.24636113     0.27900
H58         H  0.56292665  0.14585052  0.34358031     0.32200
H59         H  0.65046082  0.23012922  0.41478051     0.35000
H60         H  0.71893611  0.15126142  0.26108469     0.27600
H61         H  0.73924491  0.37695693  0.25910346     0.40500
H62         H  0.53165780  0.30902567  0.23196049     0.30600
H63         H  0.54821633  0.25202878  0.19144533     0.38200
H64         H  0.73415106  0.24872716  0.37392240     0.30000
H65         H  0.53187214  0.34959218  0.34030831     0.30100
H66         H  0.57833350  0.16762449  0.37862913     0.30400
C67         C  0.54190594  0.08475026  0.16555829     0.85800
C68         C  0.57266591  0.06188466  0.18532639    -0.54400
C69         C  0.57446824  0.06777305  0.22328234     0.08700
C70         C  0.54572586  0.09538266  0.23825550     0.19700
C71         C  0.50602729  0.07488394  0.18667479    -0.55100
C72         C  0.50779069  0.08092898  0.22437205     0.08800
C73         C  0.55177241  0.12466775  0.17746705    -0.54700
C74         C  0.55409178  0.13016643  0.21543648     0.09400
H75         H  0.59167686  0.04286701  0.17165134     0.13900
H76         H  0.54690309  0.09965364  0.26916736    -0.00300
H77         H  0.48052251  0.06635492  0.17258472     0.14200
H78         H  0.55930118  0.14585872  0.15730030     0.14000
C79         C  0.65289515  0.10285993  0.42831897     0.85800
C80         C  0.68719853  0.09731736  0.45222569    -0.54400
C81         C  0.72018428  0.09879664  0.43383617     0.08700
C82         C  0.71551967  0.10278480  0.38959264     0.19700
C83         C  0.66015880  0.13816070  0.40647244    -0.55100
C84         C  0.69107762  0.13816052  0.38371279     0.08800
C85         C  0.65557702  0.07187713  0.39838908    -0.54700
C86         C  0.68808250  0.07108106  0.37810790     0.09400
H87         H  0.68460405  0.09652950  0.98222669     0.13900
H88         H  0.74229257  0.10304204  0.37384642    -0.00300
H89         H  0.63920892  0.15973330  0.40534902     0.14200
H90         H  0.63426974  0.05129994  0.39343128     0.14000
Zr91       Zr  0.89635644  0.17394258  0.06432561     2.17500
O92         O  0.92132416  0.22624312  0.10017709    -0.52000
O93         O  0.92453486  0.21640232  0.01903193    -0.75200
O94         O  0.95373793  0.15619101  0.09791230    -0.82000
O95         O  0.79056702  0.20820754  0.08116589    -0.83700
O96         O  0.97179628  0.10003727  0.07536536    -0.79400
O97         O  0.85144083  0.21245139  0.09727547    -0.91000
O98         O  0.91819582  0.19314003  0.96013940    -0.77000
O99         O  0.92175696  0.13342753  0.01839503    -0.86500
O100        O  0.85538134  0.17951789  0.01164537    -0.86100
O101        O  0.89328065  0.11404960  0.09380083    -0.72900
O102        O  0.83497863  0.15561833  0.08222077    -0.85000
Zr103      Zr  0.81956730  0.05524993  0.01440231     2.26400
Zr104      Zr  0.91808001  0.07338115  0.04622992     2.06300
Zr105      Zr  0.79383262  0.15937921  0.03053227     2.10000
Zr106      Zr  0.88068425  0.13776376  0.96628085     1.78800
O107        O  0.73024826  0.15756622  0.05473728    -0.93800
O108        O  0.93799840  0.11761443  0.43462850    -0.41600
O109        O  0.82130372  0.11636589  0.98775681    -0.78300
O110        O  0.88015435  0.07659177  0.99118054    -0.97000
O111        O  0.85790425  0.05557550  0.06895323    -0.90300
O112        O  0.79127788  0.09836025  0.05779060    -0.93100
C113        C  0.92927373  0.21807750  0.98329639     1.00600
C114        C  0.81706088  0.22173436  0.10185446     1.13600
C115        C  0.97669856  0.12887894  0.09557040     1.04400
O116        O  0.96502317  0.06027889  0.99836126    -0.95300
O117        O  0.90269805  0.00945388  0.03331190    -0.91000
O118        O  0.86238246  0.01041796  0.98588843    -0.84200
C119        C  0.89319954  0.99953301  0.00041506     1.11000
O120        O  0.83499817  0.13767672  0.16780285    -0.97200
Zr121      Zr  0.83038102  0.09830837  0.11213245     1.88900
O122        O  0.81263217  0.01035343  0.06778167    -0.73900
O123        O  0.95204467  0.03308609  0.08876660    -0.53100
O124        O  0.86093266  0.07054372  0.16593470    -0.97800
O125        O  0.77176252  0.12133615  0.13808973    -0.55000
O126        O  0.79390949  0.04291247  0.11835840    -0.74400
C127        C  0.80269886  0.01246458  0.10274891     0.97900
O128        O  0.77560724  0.00813983  0.49203231    -0.63200
O129        O  0.77937430  0.21404693  0.99367841    -0.58000
O130        O  0.77086046  0.07254311  0.96783599    -0.94700
O131        O  0.75747055  0.13369564  0.97712259    -0.93100
O132        O  0.84502232  0.17410877  0.42328058    -0.93500
O133        O  0.86819102  0.10690423  0.40674686    -0.92300
C134        C  0.75301367  0.10251083  0.95944856     1.16800
H135        H  0.85446239  0.20457189  0.00246689     0.32700
H136        H  0.89128197  0.06317948  0.97058487     0.43600
H137        H  0.76595821  0.09099341  0.06351592     0.37100
H138        H  0.90771952  0.11262592  0.11655466     0.33600
H139        H  0.94082846  0.13496115  0.41340204     0.25400
H140        H  0.93260083  0.01830230  0.10167523     0.31300
H141        H  0.84027981  0.06315791  0.18288677     0.37200
H142        H  0.81937681  0.17398750  0.43369926     0.31700
H143        H  0.75619974  0.20761404  0.98002758     0.30600
H144        H  0.71986950  0.18214267  0.04866508     0.32200
H145        H  0.75220504  0.10411632  0.12897593     0.31200
H146        H  0.84428874  0.09364742  0.41073779     0.35200
H147        H  0.78859452  0.98427312  0.49543747     0.27900
H148        H  0.94707685  0.22995692  0.09077157     0.32200
H149        H  0.85669625  0.15399090  0.16287725     0.35000
H150        H  0.77151888  0.23295031  0.01232069     0.27600
H151        H  0.75536931  0.00789957  0.51104318     0.40500
H152        H  0.98555123  0.04813797  0.01204770     0.30600
H153        H  0.95847874  0.12437494  0.45198526     0.38200
H154        H  0.76705128  0.14469963  0.12459570     0.30000
H155        H  0.96526719  0.01511811  0.07238085     0.30100
H156        H  0.92439053  0.21711929  0.12613617     0.30400
C157        C  0.95620765  0.29914929  0.42130549     0.85800
C158        C  0.92322955  0.31886840  0.44099502    -0.54400
C159        C  0.92081732  0.31342947  0.97658490     0.08700
C160        C  0.95121659  0.28753113  0.99155894     0.19700
C161        C  0.99090257  0.31110018  0.44338613    -0.55100
C162        C  0.98903247  0.30417355  0.97893095     0.08800
C163        C  0.94917779  0.25822126  0.43166719    -0.54700
C164        C  0.94581811  0.25239156  0.96759741     0.09400
H165        H  0.90337546  0.00404079  0.42649648     0.13900
H166        H  0.94928836  0.28289074  0.02231259    -0.00300
H167        H  0.01621830  0.32087005  0.42974487     0.14200
H168        H  0.94377873  0.23692324  0.41068091     0.14000
C169        C  0.84571098  0.28573798  0.17984593     0.85800
C170        C  0.81049320  0.29156609  0.20238275    -0.54400
C171        C  0.77827363  0.28736775  0.18339725     0.08700
C172        C  0.78443804  0.28073707  0.13954905     0.19700
C173        C  0.84067621  0.24904358  0.15952058    -0.55100
C174        C  0.81065239  0.24634429  0.13576232     0.08800
C175        C  0.84303662  0.31453525  0.14813351    -0.54700
C176        C  0.81094686  0.31275299  0.12718220     0.09400
H177        H  0.81101990  0.29607587  0.23265660     0.13900
H178        H  0.75822891  0.27843786  0.12319081    -0.00300
H179        H  0.86259469  0.22837903  0.16067723     0.14200
H180        H  0.86318261  0.00546217  0.14535561     0.14000
Zr181      Zr  0.39176769  0.03607055  0.27432263     2.17500
O182        O  0.41973217  0.98823106  0.23488601    -0.52000
O183        O  0.42172417  0.32633644  0.31926539    -0.75200
O184        O  0.45046987  0.05450891  0.24399005    -0.82000
O185        O  0.29302334  0.32724157  0.26024136    -0.83700
O186        O  0.46898311  0.10975818  0.26821919    -0.79400
O187        O  0.35360775  0.32591137  0.24199569    -0.91000
O188        O  0.41431867  0.01706850  0.37727468    -0.77000
O189        O  0.41643191  0.07648906  0.32066717    -0.86500
O190        O  0.35131888  0.02872666  0.32724997    -0.86100
O191        O  0.38803887  0.09577650  0.24536560    -0.72900
O192        O  0.33001237  0.05186705  0.25404097    -0.85000
Zr193      Zr  0.31460454  0.15196174  0.32849280     2.26400
Zr194      Zr  0.41255858  0.13628026  0.29256147     2.06300
Zr195      Zr  0.29012439  0.04674419  0.30746116     2.10000
Zr196      Zr  0.37551935  0.07064242  0.37315934     1.78800
O197        O  0.22711648  0.04481220  0.28200449    -0.93800
O198        O  0.42915695  0.09069614  0.41005905    -0.41600
O199        O  0.31605862  0.08956085  0.35182849    -0.78300
O200        O  0.37593057  0.13164447  0.34878128    -0.97000
O201        O  0.35163824  0.15424733  0.27248388    -0.90300
O202        O  0.28662450  0.10914677  0.28357528    -0.93100
C203        C  0.42627631  0.32479765  0.35491655     1.00600
C204        C  0.32001886  0.31395491  0.23962158     1.13600
C205        C  0.47402019  0.08116116  0.24763628     1.04400
O206        O  0.46221506  0.15570347  0.33480226    -0.95300
O207        O  0.40115989  0.20003162  0.30864398    -0.91000
O208        O  0.35962493  0.19711284  0.35572300    -0.84200
C209        C  0.39050566  0.20929710  0.34146673     1.11000
O210        O  0.28875499  0.05964539  0.20362739    -0.97200
Zr211      Zr  0.32487032  0.11171668  0.22821898     1.88900
O212        O  0.30056425  0.19858004  0.27936174    -0.73900
O213        O  0.43779620  0.16976433  0.23900466    -0.53100
O214        O  0.36713073  0.12419471  0.17561675    -0.97800
O215        O  0.30206942  0.13051697  0.16640650    -0.55000
O216        O  0.27909875  0.16030940  0.23586884    -0.74400
C217        C  0.28894023  0.19262813  0.24574819     0.97900
O218        O  0.27157193  0.19573106  0.35760877    -0.63200
O219        O  0.27698343  0.99157961  0.34423216    -0.58000
O220        O  0.26694833  0.13148154  0.37483002    -0.94700
O221        O  0.25195145  0.07138922  0.36063304    -0.93100
O222        O  0.34174220  0.02976913  0.41555195    -0.93500
O223        O  0.35733987  0.10136860  0.43155918    -0.92300
C224        C  0.24803477  0.10145449  0.38051188     1.16800
H225        H  0.35077295  0.00352865  0.33611592     0.32700
H226        H  0.38790724  0.14451331  0.36928450     0.43600
H227        H  0.26066217  0.11486879  0.27933726     0.37100
H228        H  0.40378678  0.09672707  0.22341092     0.33600
H229        H  0.42920555  0.07432025  0.43223361     0.25400
H230        H  0.41557999  0.17933159  0.22586981     0.31300
H231        H  0.37140385  0.09979590  0.16349394     0.37200
H232        H  0.35906371  0.02568573  0.43671216     0.31700
H233        H  0.28056737  0.99943563  0.37067381     0.30600
H234        H  0.21334058  0.06446242  0.29566524     0.32200
H235        H  0.27521091  0.13593623  0.16972430     0.31200
H236        H  0.34476180  0.12435168  0.42361907     0.35200
H237        H  0.28399610  0.22012597  0.35531914     0.27900
H238        H  0.44742222  0.31661070  0.24839038     0.32200
H239        H  0.30430830  0.04889347  0.18327011     0.35000
H240        H  0.24501366  0.32616021  0.34328280     0.27600
H241        H  0.25018467  0.19693462  0.34012959     0.40500
H242        H  0.47836994  0.17174273  0.31920489     0.30600
H243        H  0.45121082  0.08292097  0.39520347     0.38200
H244        H  0.30233966  0.10810345  0.15023425     0.30000
H245        H  0.44998724  0.19198140  0.24990124     0.30100
H246        H  0.42356460  0.99989449  0.21007832     0.30400
C247        C  0.45280551  0.24643076  0.42149328     0.85800
C248        C  0.42030945  0.22529328  0.40278998    -0.54400
C249        C  0.41778938  0.22989738  0.36491225     0.08700
C250        C  0.44842628  0.25535651  0.34868204     0.19700
C251        C  0.48820999  0.23515749  0.39988816    -0.55100
C252        C  0.48634754  0.23993052  0.36197337     0.08800
C253        C  0.44630266  0.28691204  0.40895317    -0.54700
C254        C  0.44319640  0.29132878  0.37100259     0.09400
H255        H  0.40106194  0.20781911  0.41833492     0.13900
H256        H  0.44672478  0.25881963  0.31776259    -0.00300
H257        H  0.51420371  0.22868824  0.41390766     0.14200
H258        H  0.44154954  0.31024621  0.42735851     0.14000
C259        C  0.34284607  0.23798845  0.16597531     0.85800
C260        C  0.30895724  0.24509850  0.14151989    -0.54400
C261        C  0.27702895  0.25388799  0.15960822     0.08700
C262        C  0.28209285  0.25629919  0.20389596     0.19700
C263        C  0.34618346  0.27426305  0.18839854    -0.55100
C264        C  0.31543180  0.28369153  0.21015718     0.08800
C265        C  0.33053804  0.20953248  0.19468268    -0.54700
C266        C  0.29956288  0.21840060  0.21507252     0.09400
H267        H  0.31017965  0.24369115  0.11099126     0.13900
H268        H  0.25649162  0.26351865  0.21992539    -0.00300
H269        H  0.37107137  0.29121909  0.18733036     0.14200
H270        H  0.34656439  0.18481316  0.19998529     0.14000
Zr271      Zr  0.10954179  0.00505759  0.53000273     2.17500
O272        O  0.08763129  0.05590757  0.49103943    -0.52000
O273        O  0.07795746  0.04500285  0.07450915    -0.75200
O274        O  0.04890211  0.99208875  0.49931085    -0.82000
O275        O  0.21287213  0.02679925  0.50929419    -0.83700
O276        O  0.02628662  0.27383597  0.52485469    -0.79400
O277        O  0.15654925  0.05305834  0.51704316    -0.91000
O278        O  0.08755384  0.02293259  0.13297832    -0.77000
O279        O  0.08177816  0.30019313  0.07267106    -0.86500
O280        O  0.14944729  0.00695403  0.08318146    -0.86100
O281        O  0.10803839  0.27965834  0.49826909    -0.72900
O282        O  0.16957716  0.31524293  0.50896086    -0.85000
Zr283      Zr  0.17848116  0.21558100  0.07386992     2.26400
Zr284      Zr  0.08062725  0.24070729  0.04284650     2.06300
Zr285      Zr  0.21027056  0.31760446  0.06167434     2.10000
Zr286      Zr  0.12227212  0.29982584  0.12514981     1.78800
O287        O  0.27501258  0.30893495  0.53697718    -0.93800
O288        O  0.06527499  0.27875952  0.15602931    -0.41600
O289        O  0.17993761  0.27580418  0.10270177    -0.78300
O290        O  0.11930933  0.23992641  0.09734395    -0.97000
O291        O  0.13945105  0.21851312  0.02026465    -0.90300
O292        O  0.20953093  0.25716487  0.03173264    -0.93100
C293        C  0.07481982  0.04694149  0.11022119     1.00600
C294        C  0.18772159  0.05005831  0.49930330     1.13600
C295        C  0.02360652  0.30196130  0.50357319     1.04400
O296        O  0.03170552  0.22715637  0.08843221    -0.95300
O297        O  0.08511946  0.17606458  0.05931345    -0.91000
O298        O  0.13283863  0.17323341  0.10047119    -0.84200
C299        C  0.10002670  0.16400522  0.08931041     1.11000
O300        O  0.16249410  0.29461045  0.42230621    -0.97200
Zr301      Zr  0.16827730  0.25723099  0.47861708     1.88900
O302        O  0.18730577  0.16978541  0.02044739    -0.73900
O303        O  0.05317748  0.20690604  0.49196917    -0.53100
O304        O  0.13348068  0.22676041  0.42855453    -0.97800
O305        O  0.22809508  0.27526402  0.45133400    -0.55000
O306        O  0.19736096  0.19843547  0.46774143    -0.74400
C307        C  0.19234867  0.16858691  0.48584034     0.97900
O308        O  0.21844922  0.16693308  0.09813280    -0.63200
O309        O  0.22486806  0.04044718  0.09799675    -0.58000
O310        O  0.22609822  0.23077394  0.12258799    -0.94700
O311        O  0.24223050  0.29169242  0.11757521    -0.93100
O312        O  0.15633206  0.00140468  0.17252885    -0.93500
O313        O  0.13559230  0.26984156  0.18462164    -0.92300
C314        C  0.24462518  0.25974517  0.13368435     1.16800
H315        H  0.15162478  0.03168154  0.09348584     0.32700
H316        H  0.10725379  0.22698249  0.11760201     0.43600
H317        H  0.23318163  0.24485232  0.52520641     0.37100
H318        H  0.09270302  0.28025354  0.47605068     0.33600
H319        H  0.06312024  0.29433529  0.17892145     0.25400
H320        H  0.02822952  0.19891917  0.50084025     0.31300
H321        H  0.10925261  0.22025575  0.44015666     0.37200
H322        H  0.17917928  0.00927824  0.15904073     0.31700
H323        H  0.24399972  0.03298926  0.11640148     0.30600
H324        H  0.28496026  0.28626376  0.54867565     0.32200
H325        H  0.24433751  0.25331913  0.45368511     0.31200
H326        H  0.14840235  0.24659551  0.17745446     0.35200
H327        H  0.20339429  0.14398066  0.09613232     0.27900
H328        H  0.06573607  0.06625240  0.50443703     0.32200
H329        H  0.13711237  0.30525169  0.42376550     0.35000
H330        H  0.23858689  0.05596270  0.07973241     0.27600
H331        H  0.23834594  0.16390954  0.07899737     0.40500
H332        H  0.01605374  0.20796777  0.07619071     0.30600
H333        H  0.04478989  0.28728850  0.13969048     0.38200
H334        H  0.23864999  0.29358336  0.46919590     0.30000
H335        H  0.04797470  0.22589526  0.47280741     0.30100
H336        H  0.07730892  0.04492908  0.46771531     0.30400
C337        C  0.04833218  0.12704783  0.17521995     0.85800
C338        C  0.07540325  0.15132011  0.15251691    -0.54400
C339        C  0.07639357  0.14323213  0.11510361     0.08700
C340        C  0.04789653  0.11426016  0.10284791     0.19700
C341        C  0.01043002  0.13508476  0.15647095    -0.55100
C342        C  0.01049627  0.12851391  0.11857255     0.08800
C343        C  0.05746446  0.08705303  0.16398344    -0.54700
C344        C  0.05782156  0.08042325  0.12635497     0.09400
H345        H  0.09013827  0.17495987  0.16402224     0.13900
H346        H  0.04779847  0.10906605  0.07204245    -0.00300
H347        H  0.98569011  0.14442864  0.17132263     0.14200
H348        H  0.06565540  0.06638136  0.18435965     0.14000
C349        C  0.14822037  0.09821947  0.41727105     0.85800
C350        C  0.18126357  0.10089066  0.39050333    -0.54400
C351        C  0.21528576  0.10275829  0.40694648     0.08700
C352        C  0.21299490  0.10325017  0.45151908     0.19700
C353        C  0.15745990  0.06529610  0.44175108    -0.55100
C354        C  0.18960381  0.06831063  0.46202358     0.08800
C355        C  0.15278284  0.13265908  0.44275991    -0.54700
C356        C  0.18585079  0.13521704  0.46162982     0.09400
H357        H  0.17803595  0.10035457  0.36013169     0.13900
H358        H  0.24048909  0.10496285  0.46567122    -0.00300
H359        H  0.13800979  0.04259423  0.44562624     0.14200
H360        H  0.13281166  0.15480660  0.44473549     0.14000
C361        C  0.08842476  0.12670703  0.27507882    -0.23100
C362        C  0.05748988  0.11496457  0.29559594     0.08800
C363        C  0.02242749  0.11278755  0.27836430     0.09200
C364        C  0.01951156  0.12122186  0.23996592    -0.18000
C365        C  0.05123624  0.13054207  0.21800078    -0.28500
C366        C  0.08669600  0.13185471  0.23639397     0.17600
C367        C  0.06546302  0.10020105  0.33317248     0.11500
C368        C  0.98875085  0.09972196  0.29996727    -0.12800
H369        H  0.99273093  0.11717167  0.22670567     0.11800
C370        C  0.12395504  0.13437420  0.21631205    -0.23700
H371        H  0.11525297  0.12802273  0.28908464     0.07500
C372        C  0.08814224  0.06854680  0.33628535     0.03800
C373        C  0.11108760  0.06516133  0.36772480    -0.20900
C374        C  0.11148574  0.09281961  0.39579190    -0.13200
C375        C  0.08041853  0.11707990  0.39750780     0.12500
C376        C  0.05950350  0.12257388  0.36480561    -0.23600
C377        C  0.09056643  0.04032574  0.30494609    -0.06700
H378        H  0.13202714  0.04359986  0.36798327     0.14000
C379        C  0.06627161  0.13451545  0.43321572    -0.16900
H380        H  0.03947300  0.14493253  0.36365881     0.08400
H381        H  0.14756518  0.12735453  0.23505589     0.06200
H382        H  0.12949252  0.16301111  0.20697698     0.07400
H383        H  0.12539682  0.11433740  0.19260629     0.06500
H384        H  0.98333326  0.11879477  0.32393637     0.01300
H385        H  0.99368056  0.07143536  0.31083547     0.01800
H386        H  0.96344191  0.09889785  0.28210330     0.05300
H387        H  0.10878753  0.01678390  0.31257595     0.04300
H388        H  0.10215231  0.05297571  0.27910581    -0.01500
H389        H  0.06228002  0.02920557  0.29889482     0.00000
H390        H  0.06882038  0.16503564  0.43153060     0.03700
H391        H  0.08080616  0.12393331  0.45833296     0.05600
H392        H  0.03633817  0.12733348  0.43698834     0.06500
C393        C  0.45371180  0.19544583  0.51678671    -0.23100
C394        C  0.44123947  0.22333110  0.54118716     0.08800
C395        C  0.43916703  0.25999074  0.52807192     0.09200
C396        C  0.44710975  0.26730907  0.49037918    -0.18000
C397        C  0.45452292  0.23876120  0.46409212    -0.28500
C398        C  0.45981013  0.20228539  0.47838550     0.17600
C399        C  0.42324983  0.21579104  0.07886935     0.11500
C400        C  0.42598641  0.29145654  0.55298056    -0.12800
H401        H  0.44533331  0.29569454  0.48215880     0.11800
C402        C  0.47089700  0.16977876  0.45381927    -0.23700
H403        H  0.45672068  0.16934985  0.02956128     0.07500
C404        C  0.38935280  0.19583567  0.08037536     0.03800
C405        C  0.36694025  0.19883818  0.11249566    -0.20900
C406        C  0.37576799  0.22392871  0.14172115    -0.13200
C407        C  0.41335166  0.23626101  0.14383741     0.12500
C408        C  0.43640680  0.23282115  0.11188020    -0.23600
C409        C  0.37494440  0.17398052  0.04717128    -0.06700
H410        H  0.34010591  0.18490861  0.11272816     0.14000
C411        C  0.43107184  0.25017820  0.17938985    -0.16900
H412        H  0.46404477  0.24511249  0.11207790     0.08400
H413        H  0.45061205  0.16524282  0.43087738     0.06200
H414        H  0.47204470  0.14364176  0.46999552     0.07400
H415        H  0.49914261  0.17412524  0.44194400     0.06500
H416        H  0.44603386  0.29621790  0.57617112     0.01300
H417        H  0.39799174  0.28494300  0.56472494     0.01800
H418        H  0.42365798  0.31786225  0.53742738     0.05300
H419        H  0.34696243  0.16188048  0.05277792     0.04300
H420        H  0.39412944  0.15076807  0.04071137    -0.01500
H421        H  0.37251727  0.19215296  0.02230206     0.00000
H422        H  0.41112911  0.91316445  0.20512698     0.03700
H423        H  0.43999290  0.27931036  0.17566556     0.05600
H424        H  0.45618521  0.23335701  0.18542971     0.06500
C425        C  0.97601012  0.28346268  0.31586557    -0.23100
C426        C  0.94987550  0.30748932  0.30016644     0.08800
C427        C  0.93272603  0.33441995  0.32322865     0.09200
C428        C  0.93981346  0.33449204  0.36180941    -0.18000
C429        C  0.96014760  0.30580555  0.37881452    -0.28500
C430        C  0.98184565  0.28248637  0.35485441     0.17600
C431        C  0.93221103  0.29672761  0.26427789     0.11500
C432        C  0.90691244  0.02566816  0.30345330    -0.12800
H433        H  0.92754631  0.35631032  0.37848616     0.11800
C434        C  0.01024708  0.25517781  0.36884165    -0.23700
H435        H  0.98962948  0.26319496  0.29792417     0.07500
C436        C  0.93504398  0.31763302  0.23122403     0.03800
C437        C  0.90872027  0.31184521  0.20249206    -0.20900
C438        C  0.87946742  0.28571702  0.20634069    -0.13200
C439        C  0.88055219  0.26140401  0.23791961     0.12500
C440        C  0.90682532  0.26751796  0.26607279    -0.23600
C441        C  0.97094436  0.00883990  0.22363712    -0.06700
H442        H  0.91088721  0.32881241  0.17785092     0.14000
C443        C  0.85348730  0.22998799  0.24540099    -0.16900
H444        H  0.90562792  0.25087387  0.29132102     0.08400
H445        H  0.03749085  0.26062052  0.35495516     0.06200
H446        H  0.00115174  0.22658314  0.36165942     0.07400
H447        H  0.01509143  0.25685211  0.39942564     0.06500
H448        H  0.88045894  0.34472781  0.29524140     0.01300
H449        H  0.92068312  0.04333212  0.28222272     0.01800
H450        H  0.89433464  0.04426402  0.32495380     0.05300
H451        H  0.96886751  0.02355075  0.19645175     0.04300
H452        H  0.99324848  0.33152383  0.22759601    -0.01500
H453        H  0.97205172  0.02980555  0.24645497     0.00000
H454        H  0.86917031  0.20362218  0.24705052     0.03700
H455        H  0.83130987  0.22600786  0.22445363     0.05600
H456        H  0.83953117  0.23479398  0.27284117     0.06500
C457        C  0.52068893  0.10695765  0.06204753    -0.23100
C458        C  0.54545162  0.08310038  0.04366236     0.08800
C459        C  0.56261103  0.05456997  0.06414541     0.09200
C460        C  0.55742348  0.05302464  0.10310467    -0.18000
C461        C  0.53763904  0.08073181  0.12274936    -0.28500
C462        C  0.51605355  0.10605496  0.10118377     0.17600
C463        C  0.56221296  0.09537974  0.00785374     0.11500
C464        C  0.58951230  0.02783802  0.04578476    -0.11600
H465        H  0.57061819  0.03076993  0.11789538     0.11800
C466        C  0.48950321  0.13423257  0.11778462    -0.23700
H467        H  0.50738440  0.12861536  0.04609587     0.07500
C468        C  0.55944146  0.07512885  0.97414186     0.03800
C469        C  0.58695903  0.08014663  0.94634201    -0.20900
C470        C  0.61774169  0.10491955  0.45305236    -0.13200
C471        C  0.61436895  0.13069196  0.98256727     0.12500
C472        C  0.58734856  0.12485703  0.01022870    -0.23600
C473        C  0.52726950  0.04895023  0.96743040    -0.06700
H474        H  0.58449050  0.06485238  0.42159180     0.14000
C475        C  0.64068349  0.16280460  0.98975983    -0.16900
H476        H  0.58794386  0.14171669  0.03558344     0.08400
H477        H  0.46160913  0.13078762  0.10471050     0.06200
H478        H  0.49986584  0.16257830  0.11168725     0.07400
H479        H  0.48543819  0.13194310  0.14840881     0.06500
H480        H  0.61262588  0.04322100  0.03204186     0.01300
H481        H  0.57498459  0.01053775  0.02459588     0.01800
H482        H  0.60210553  0.00879763  0.06649208     0.05300
H483        H  0.52913201  0.03541730  0.93937347     0.04300
H484        H  0.50073561  0.06465871  0.96877773    -0.01500
H485        H  0.52627538  0.02702426  0.98894671     0.00000
H486        H  0.62441941  0.18889016  0.99083902     0.03700
H487        H  0.66496789  0.16469933  0.47126118     0.05600
H488        H  0.65460989  0.15907461  0.01726947     0.06500
Zr489      Zr  0.60731715  0.20434632  0.81286701     2.17500
O490        O  0.58535661  0.15476490  0.85379826    -0.52000
O491        O  0.57698365  0.16384855  0.76723556    -0.75200
O492        O  0.54714664  0.21767089  0.84401255    -0.82000
O493        O  0.71053301  0.18124608  0.83345257    -0.83700
O494        O  0.52405021  0.26991202  0.81807771    -0.79400
O495        O  0.65201456  0.15736328  0.83301333    -0.91000
O496        O  0.58164986  0.18832631  0.70906093    -0.77000
O497        O  0.57971035  0.24326325  0.76731251    -0.86500
O498        O  0.64860469  0.20191615  0.76000191    -0.86100
O499        O  0.60566565  0.26419323  0.84327071    -0.72900
O500        O  0.66663581  0.22762091  0.83303029    -0.85000
Zr501      Zr  0.67624323  0.32776939  0.76400425     2.26400
Zr502      Zr  0.57854369  0.30325517  0.79662009     2.06300
Zr503      Zr  0.70794053  0.22621281  0.78061510     2.10000
Zr504      Zr  0.62114643  0.24185143  0.71509832     1.78800
O505        O  0.77131714  0.23534943  0.80341122    -0.93800
O506        O  0.56773914  0.26271449  0.67885409    -0.41600
O507        O  0.67852252  0.26648568  0.73759048    -0.78300
O508        O  0.61698738  0.30247680  0.74139538    -0.97000
O509        O  0.63712702  0.32679923  0.81810726    -0.90300
O510        O  0.70625446  0.28758497  0.80790982    -0.93100
C511        C  0.57076603  0.16331216  0.73179869     1.00600
C512        C  0.68533511  0.15900277  0.84645813     1.13600
C513        C  0.52111628  0.24167106  0.83935202     1.04400
O514        O  0.52567066  0.32352624  0.75934718    -0.95300
O515        O  0.58473538  0.03545636  0.77902066    -0.91000
O516        O  0.63201043  0.03721760  0.73683242    -0.84200
C517        C  0.59953732  0.04717303  0.74860854     1.11000
O518        O  0.65928490  0.25124744  0.91927673    -0.97200
Zr519      Zr  0.66613206  0.28667743  0.86176677     1.88900
O520        O  0.68613956  0.04064962  0.81730413    -0.73900
O521        O  0.55310365  0.33343898  0.85243319    -0.53100
O522        O  0.62928712  0.31972550  0.90869150    -0.97800
O523        O  0.72428713  0.26995004  0.89248835    -0.55000
O524        O  0.69938846  0.34407784  0.86915085    -0.74400
C525        C  0.69562017  0.03925651  0.85235839     0.97900
O526        O  0.71800192  0.37549274  0.73997675    -0.63200
O527        O  0.72825995  0.17033415  0.74781547    -0.58000
O528        O  0.72564019  0.31158337  0.71702939    -0.94700
O529        O  0.74198722  0.25119692  0.72555987    -0.93100
O530        O  0.65500850  0.19923751  0.67421005    -0.93500
O531        O  0.64115436  0.26921151  0.65602164    -0.92300
C532        C  0.74479328  0.28240980  0.70804795     1.16800
H533        H  0.65090086  0.17698532  0.75037051     0.32700
H534        H  0.60480852  0.31501409  0.72103430     0.43600
H535        H  0.73091239  0.29661602  0.81404712     0.37100
H536        H  0.59040741  0.26404747  0.86570892     0.33600
H537        H  0.56497530  0.24414784  0.65844920     0.25400
H538        H  0.57252671  0.35142887  0.86023352     0.31300
H539        H  0.64742952  0.32727630  0.92823421     0.37200
H540        H  0.68164606  0.20388251  0.67989266     0.31700
H541        H  0.75373384  0.16572062  0.75728259     0.30600
H542        H  0.78244668  0.21033243  0.80336515     0.32200
H543        H  0.74274574  0.28887816  0.88474995     0.31200
H544        H  0.64370356  0.29597710  0.66163264     0.35200
H545        H  0.70292907  0.39838914  0.73996571     0.27900
H546        H  0.56171013  0.14581853  0.84258984     0.32200
H547        H  0.64982237  0.22680659  0.91085526     0.35000
H548        H  0.71298414  0.15013002  0.75861174     0.27600
H549        H  0.73653435  0.37951643  0.76017265     0.40500
H550        H  0.53198093  0.31640228  0.73320289     0.30600
H551        H  0.54592286  0.25840797  0.69540882     0.38200
H552        H  0.73242644  0.24705519  0.87945197     0.30000
H553        H  0.53243917  0.34886633  0.84299351     0.30100
H554        H  0.57794952  0.16656632  0.87786712     0.30400
C555        C  0.54203133  0.08404892  0.66615531     0.85800
C556        C  0.57388480  0.06267477  0.68590167    -0.54400
C557        C  0.57547143  0.06871986  0.72383940     0.08700
C558        C  0.54572229  0.09524217  0.73867569     0.19700
C559        C  0.50677181  0.07268818  0.68738050    -0.55100
C560        C  0.50849351  0.07899019  0.72498910     0.08800
C561        C  0.55010872  0.12446088  0.67773608    -0.54700
C562        C  0.55245600  0.13026481  0.71564291     0.09400
H563        H  0.59340896  0.04414956  0.67225183     0.13900
H564        H  0.54677714  0.09969735  0.76957035    -0.00300
H565        H  0.48161316  0.06296699  0.67342874     0.14200
H566        H  0.55678746  0.14577425  0.65741163     0.14000
C567        C  0.65242993  0.10331019  0.92735737     0.85800
C568        C  0.68656167  0.09876829  0.95181645    -0.54400
C569        C  0.71978859  0.09999727  0.93377627     0.08700
C570        C  0.71555197  0.10347781  0.88941997     0.19700
C571        C  0.65942412  0.13825863  0.90489542    -0.55100
C572        C  0.69063542  0.13837209  0.88260644     0.08800
C573        C  0.65595064  0.07187026  0.89795285    -0.54700
C574        C  0.68871466  0.07137820  0.87804670     0.09400
H575        H  0.68559638  0.09459071  0.48261576     0.13900
H576        H  0.74247825  0.10386039  0.87394195    -0.00300
H577        H  0.63819391  0.15946764  0.90309725     0.14200
H578        H  0.63492944  0.05102001  0.89285618     0.14000
Zr579      Zr  0.89571839  0.17293135  0.56517036     2.17500
O580        O  0.92056433  0.22452182  0.60211815    -0.52000
O581        O  0.92510387  0.21521104  0.52052311    -0.75200
O582        O  0.95232953  0.15488544  0.60004979    -0.82000
O583        O  0.79009627  0.20971462  0.57967348    -0.83700
O584        O  0.97211353  0.10097661  0.57390603    -0.79400
O585        O  0.85088192  0.21287511  0.59563228    -0.91000
O586        O  0.91761539  0.19308551  0.46131780    -0.77000
O587        O  0.92151488  0.13258094  0.51936987    -0.86500
O588        O  0.85546436  0.17872876  0.51199790    -0.86100
O589        O  0.89192074  0.11319253  0.59458425    -0.72900
O590        O  0.83382540  0.15539069  0.58317945    -0.85000
Zr591      Zr  0.81943138  0.05487074  0.51464069     2.26400
Zr592      Zr  0.91753668  0.07277738  0.54755067     2.06300
Zr593      Zr  0.79364258  0.15917588  0.53051347     2.10000
Zr594      Zr  0.88106503  0.13698644  0.46679321     1.78800
O595        O  0.72976889  0.15755297  0.55397420    -0.93800
O596        O  0.93633726  0.11685004  0.93285077    -0.41600
O597        O  0.82148563  0.11599171  0.48803978    -0.78300
O598        O  0.88022957  0.07599927  0.49202423    -0.97000
O599        O  0.85713686  0.05488366  0.56955759    -0.90300
O600        O  0.79062192  0.09804211  0.55760816    -0.93100
C601        C  0.92938506  0.21745069  0.48478535     1.00600
C602        C  0.81692459  0.22336512  0.59985941     1.13600
C603        C  0.97607789  0.12839907  0.59629431     1.04400
O604        O  0.96474091  0.05487781  0.50159725    -0.95300
O605        O  0.90321225  0.00864760  0.53434989    -0.91000
O606        O  0.86240603  0.00973554  0.48709139    -0.84200
C607        C  0.89317604  0.99863329  0.50157349     1.11000
O608        O  0.83880634  0.13465901  0.66895794    -0.97200
Zr609      Zr  0.82897929  0.09745968  0.61244839     1.88900
O610        O  0.81226682  0.00952816  0.56739407    -0.73900
O611        O  0.94978941  0.03809223  0.59595940    -0.53100
O612        O  0.85733360  0.06760070  0.66626318    -0.97800
O613        O  0.77034794  0.12001452  0.63899460    -0.55000
O614        O  0.79243039  0.04183952  0.61763480    -0.74400
C615        C  0.80197527  0.01149100  0.60222149     0.97900
O616        O  0.77609085  0.00749445  0.99345677    -0.63200
O617        O  0.78051296  0.21346510  0.49264929    -0.58000
O618        O  0.77114718  0.07192476  0.46793159    -0.94700
O619        O  0.75777283  0.13318682  0.47677044    -0.93100
O620        O  0.84490306  0.17676297  0.92432587    -0.93500
O621        O  0.86508161  0.10966242  0.90598042    -0.92300
C622        C  0.75341192  0.10182782  0.45929720     1.16800
H623        H  0.85482403  0.20381455  0.50285234     0.32700
H624        H  0.89151885  0.06240332  0.47164647     0.43600
H625        H  0.76522541  0.09061236  0.56273740     0.37100
H626        H  0.90615959  0.11167881  0.61746307     0.33600
H627        H  0.93950154  0.13446546  0.91190276     0.25400
H628        H  0.92979827  0.02450255  0.60933899     0.31300
H629        H  0.83610050  0.06051265  0.68261497     0.37200
H630        H  0.81970717  0.17782419  0.93575324     0.31700
H631        H  0.75294762  0.21483906  0.49191122     0.30600
H632        H  0.72103261  0.18343934  0.55229345     0.32200
H633        H  0.75022513  0.10883707  0.62367038     0.31200
H634        H  0.84292945  0.09407292  0.91128883     0.35200
H635        H  0.78887613  0.98383175  0.99858577     0.27900
H636        H  0.94568340  0.22958474  0.59171702     0.32200
H637        H  0.84715544  0.15912462  0.65975719     0.35000
H638        H  0.78817297  0.23487104  0.50837470     0.27600
H639        H  0.75542230  0.00840343  0.01197573     0.40500
H640        H  0.98690147  0.04850407  0.51670842     0.30600
H641        H  0.95730504  0.12256138  0.94998878     0.38200
H642        H  0.76977958  0.14667280  0.63280009     0.30000
H643        H  0.96387444  0.01873618  0.58218677     0.30100
H644        H  0.92516471  0.21457883  0.62751538     0.30400
C645        C  0.95623121  0.29964400  0.91930050     0.85800
C646        C  0.92343323  0.31970715  0.93903198    -0.54400
C647        C  0.92068869  0.31267999  0.47853534     0.08700
C648        C  0.95134910  0.28700409  0.49352168     0.19700
C649        C  0.99101132  0.31117974  0.94143641    -0.55100
C650        C  0.98907692  0.30406473  0.48088326     0.08800
C651        C  0.94877274  0.25873586  0.92971951    -0.54700
C652        C  0.94621251  0.25180074  0.46947981     0.09400
H653        H  0.90399881  0.00552373  0.92554203     0.13900
H654        H  0.94945408  0.28230806  0.52426637    -0.00300
H655        H  0.01644864  0.32071029  0.92784646     0.14200
H656        H  0.94328717  0.23742078  0.90878149     0.14000
C657        C  0.84565690  0.28913776  0.67813894     0.85800
C658        C  0.81045752  0.29117900  0.70150050    -0.54400
C659        C  0.77809671  0.28669781  0.68269000     0.08700
C660        C  0.78393120  0.28277145  0.63843595     0.19700
C661        C  0.84264307  0.25371544  0.65544877    -0.55100
C662        C  0.81201786  0.25000632  0.63257383     0.08800
C663        C  0.84068625  0.31946198  0.64844149    -0.54700
C664        C  0.80850771  0.31696554  0.62775036     0.09400
H665        H  0.81123717  0.29418455  0.73194170     0.13900
H666        H  0.75775330  0.28000882  0.62209638    -0.00300
H667        H  0.86557339  0.23417518  0.65570546     0.14200
H668        H  0.86369060  0.00471298  0.64279081     0.14000
Zr669      Zr  0.39297264  0.03367663  0.77413383     2.17500
O670        O  0.42199152  0.98446054  0.73733070    -0.52000
O671        O  0.42074161  0.32384528  0.81739657    -0.75200
O672        O  0.45091017  0.05229809  0.74299008    -0.82000
O673        O  0.29382542  0.32560710  0.75818950    -0.83700
O674        O  0.47058272  0.10540053  0.77076820    -0.79400
O675        O  0.35424823  0.32491255  0.73925336    -0.91000
O676        O  0.41455324  0.01401946  0.87676958    -0.77000
O677        O  0.41793754  0.07434688  0.81986975    -0.86500
O678        O  0.35238064  0.02666761  0.82704017    -0.86100
O679        O  0.38983775  0.09343081  0.74454806    -0.72900
O680        O  0.33121753  0.04976343  0.75427266    -0.85000
Zr681      Zr  0.31617000  0.14997822  0.82775512     2.26400
Zr682      Zr  0.41416381  0.13417545  0.79186676     2.06300
Zr683      Zr  0.29108908  0.04513068  0.80736030     2.10000
Zr684      Zr  0.37742785  0.06863014  0.87243478     1.78800
O685        O  0.22858425  0.04642943  0.78083030    -0.93800
O686        O  0.43472384  0.08653001  0.90479409    -0.41600
O687        O  0.31760046  0.08783520  0.85176936    -0.78300
O688        O  0.37751772  0.12958987  0.84809648    -0.97000
O689        O  0.35329439  0.15203595  0.77173670    -0.90300
O690        O  0.28806386  0.10732171  0.78291077    -0.93100
C691        C  0.42616318  0.32299178  0.85299638     1.00600
C692        C  0.32075683  0.31266411  0.73713214     1.13600
C693        C  0.47498799  0.07813960  0.74833918     1.04400
O694        O  0.46448375  0.15534214  0.83260471    -0.95300
O695        O  0.40219694  0.19780165  0.80823253    -0.91000
O696        O  0.36078612  0.19471605  0.85535982    -0.84200
C697        C  0.39151449  0.20698140  0.84108384     1.11000
O698        O  0.29655143  0.05424828  0.70168512    -0.97200
Zr699      Zr  0.32663409  0.10926717  0.72767656     1.88900
O700        O  0.30245145  0.19621049  0.77826839    -0.73900
O701        O  0.43948796  0.16793536  0.73847064    -0.53100
O702        O  0.36854291  0.12508514  0.67577622    -0.97800
O703        O  0.29719247  0.12037995  0.66693226    -0.55000
O704        O  0.28118819  0.15840233  0.73406522    -0.74400
C705        C  0.29093768  0.19061461  0.74456557     0.97900
O706        O  0.27696934  0.19679926  0.85754194    -0.63200
O707        O  0.27306512  0.99190535  0.84504474    -0.58000
O708        O  0.26702038  0.13056290  0.87302155    -0.94700
O709        O  0.25233779  0.07021682  0.85998338    -0.93100
O710        O  0.34188734  0.03064365  0.91602145    -0.93500
O711        O  0.36466357  0.09897417  0.93234954    -0.92300
C712        C  0.24811984  0.10063547  0.87922912     1.16800
H713        H  0.35159500  0.00150920  0.83600875     0.32700
H714        H  0.38956117  0.14237510  0.86865689     0.43600
H715        H  0.26222783  0.11344642  0.77849176     0.37100
H716        H  0.40524422  0.09442253  0.72239142     0.33600
H717        H  0.43950563  0.06644680  0.92290016     0.25400
H718        H  0.41807326  0.18204059  0.72862863     0.31300
H719        H  0.37067337  0.10208166  0.66063237     0.37200
H720        H  0.31792121  0.02584141  0.90310961     0.31700
H721        H  0.24551778  0.99323725  0.84664148     0.30600
H722        H  0.23229974  0.05384360  0.75436532     0.32200
H723        H  0.29892111  0.14729962  0.66238797     0.31200
H724        H  0.34462319  0.11687135  0.92676738     0.35200
H725        H  0.28903851  0.22071599  0.85144663     0.27900
H726        H  0.44794496  0.31621814  0.74568640     0.32200
H727        H  0.31328132  0.04588165  0.68111882     0.35000
H728        H  0.28789222  0.30321877  0.83165949     0.27600
H729        H  0.25364255  0.19672804  0.84272101     0.40500
H730        H  0.48404462  0.16464638  0.81534434     0.30600
H731        H  0.45477680  0.08396748  0.88576188     0.38200
H732        H  0.27023842  0.11578455  0.67106587     0.30000
H733        H  0.45612549  0.18695175  0.74963866     0.30100
H734        H  0.42586612  0.99520719  0.71211582     0.30400
C735        C  0.45245765  0.24563398  0.92130713     0.85800
C736        C  0.42063118  0.22358834  0.90254117    -0.54400
C737        C  0.41841776  0.22776050  0.86455161     0.08700
C738        C  0.44859813  0.25349199  0.84819950     0.19700
C739        C  0.48825714  0.23470992  0.90011319    -0.55100
C740        C  0.48656285  0.23895890  0.86206337     0.08800
C741        C  0.44531506  0.28577740  0.90794081    -0.54700
C742        C  0.44258205  0.28961316  0.86984712     0.09400
H743        H  0.40152721  0.20598530  0.91811420     0.13900
H744        H  0.44708613  0.25649298  0.81721113    -0.00300
H745        H  0.51424886  0.22884002  0.91439885     0.14200
H746        H  0.44018171  0.30934400  0.92590088     0.14000
C747        C  0.34468588  0.23586922  0.66483554     0.85800
C748        C  0.31056991  0.24138202  0.64022554    -0.54400
C749        C  0.27859144  0.25023522  0.65816018     0.08700
C750        C  0.28361669  0.25398534  0.70227507     0.19700
C751        C  0.34721374  0.27297896  0.68596636    -0.55100
C752        C  0.31634375  0.28228394  0.70767894     0.08800
C753        C  0.33321123  0.20824526  0.69458692    -0.54700
C754        C  0.30185192  0.21676604  0.71440938     0.09400
H755        H  0.31175543  0.23929359  0.60972442     0.13900
H756        H  0.25784757  0.26112259  0.71805558    -0.00300
H757        H  0.37173603  0.29041874  0.68436582     0.14200
H758        H  0.34981742  0.18416630  0.70077273     0.14000
Zr759      Zr  0.10941807  0.00559995  0.02941052     2.17500
O760        O  0.08677505  0.05644237  0.99069057    -0.52000
O761        O  0.07830606  0.04402011  0.57556764    -0.75200
O762        O  0.04995635  0.99215359  0.99721919    -0.82000
O763        O  0.21302343  0.02843409  0.01067462    -0.83700
O764        O  0.02604150  0.27406608  0.02324034    -0.79400
O765        O  0.15627507  0.05400311  0.01704444    -0.91000
O766        O  0.08594892  0.02018818  0.63362182    -0.77000
O767        O  0.08285056  0.29975524  0.57512722    -0.86500
O768        O  0.15104909  0.00605844  0.58268857    -0.86100
O769        O  0.10858124  0.28025331  0.99639013    -0.72900
O770        O  0.16979600  0.31711095  0.00847869    -0.85000
Zr771      Zr  0.17783176  0.21347606  0.57497294     2.26400
Zr772      Zr  0.08050909  0.24023055  0.54497230     2.06300
Zr773      Zr  0.21148414  0.31467848  0.56096290     2.10000
Zr774      Zr  0.12462311  0.29939459  0.62666330     1.78800
O775        O  0.27570099  0.31401720  0.04329140    -0.93800
O776        O  0.06913033  0.27804627  0.65997522    -0.41600
O777        O  0.18115005  0.27385148  0.60301831    -0.78300
O778        O  0.11970024  0.23913637  0.59926903    -0.97000
O779        O  0.13836970  0.21660238  0.52168125    -0.90300
O780        O  0.20875143  0.25411436  0.53186216    -0.93100
C781        C  0.07371240  0.04477095  0.61114765     1.00600
C782        C  0.18781466  0.05134912  0.99989348     1.13600
C783        C  0.02339756  0.30201378  0.00172367     1.04400
O784        O  0.02914021  0.22528581  0.58719628    -0.95300
O785        O  0.08250519  0.17589765  0.56338076    -0.91000
O786        O  0.13206184  0.17142898  0.60238170    -0.84200
C787        C  0.09877218  0.16265423  0.59216478     1.11000
O788        O  0.16168520  0.29980778  0.92392293    -0.97200
Zr789      Zr  0.16977729  0.25931974  0.97773757     1.88900
O790        O  0.18526036  0.16777168  0.52162169    -0.73900
O791        O  0.05018638  0.20626490  0.99240779    -0.53100
O792        O  0.13859173  0.22738688  0.92614988    -0.97800
O793        O  0.23016140  0.27734880  0.95165636    -0.55000
O794        O  0.19787005  0.20008880  0.96599702    -0.74400
C795        C  0.19378895  0.17029238  0.98448586     0.97900
O796        O  0.22025504  0.16599250  0.59732658    -0.63200
O797        O  0.22954837  0.03760289  0.59562178    -0.58000
O798        O  0.22580718  0.22801983  0.62333131    -0.94700
O799        O  0.24535804  0.28756331  0.61480573    -0.93100
O800        O  0.15994501  0.00512963  0.66831847    -0.93500
O801        O  0.13888193  0.27344010  0.68785167    -0.92300
C802        C  0.24627815  0.25632491  0.63238779     1.16800
H803        H  0.15370913  0.03075675  0.59294210     0.32700
H804        H  0.10773569  0.22616667  0.61958929     0.43600
H805        H  0.23428493  0.24850257  0.02555364     0.37100
H806        H  0.09351695  0.28065822  0.97397605     0.33600
H807        H  0.06362277  0.29780246  0.67857317     0.25400
H808        H  0.02500825  0.20025538  0.00220211     0.31300
H809        H  0.11207244  0.22610706  0.93385702     0.37200
H810        H  0.18578034  0.99571781  0.66619081     0.31700
H811        H  0.25706394  0.03583949  0.59701769     0.30600
H812        H  0.28437804  0.28987136  0.05281585     0.32200
H813        H  0.24625532  0.25531555  0.95415477     0.31200
H814        H  0.14316516  0.24680601  0.68283394     0.35200
H815        H  0.20697780  0.14228629  0.59296337     0.27900
H816        H  0.06431888  0.06601864  0.00372856     0.32200
H817        H  0.17484502  0.28752333  0.90277578     0.35000
H818        H  0.22496786  0.05824733  0.57813337     0.27600
H819        H  0.24102187  0.16580113  0.57889290     0.40500
H820        H  0.00982593  0.21420742  0.57074845     0.30600
H821        H  0.04872869  0.27976373  0.64141806     0.38200
H822        H  0.24046815  0.29554604  0.96980217     0.30000
H823        H  0.04579161  0.22447335  0.97227651     0.30100
H824        H  0.07727295  0.04569171  0.96690587     0.30400
C825        C  0.04679565  0.12368468  0.67712543     0.85800
C826        C  0.07501756  0.14750262  0.65525710    -0.54400
C827        C  0.07601114  0.14042289  0.61762969     0.08700
C828        C  0.04694855  0.11228719  0.60453459     0.19700
C829        C  0.00930455  0.13317085  0.65799420    -0.55100
C830        C  0.00964312  0.12717974  0.61993669     0.08800
C831        C  0.05461131  0.08358202  0.66521285    -0.54700
C832        C  0.05570365  0.07770309  0.62750523     0.09400
H833        H  0.09053024  0.17024409  0.66769914     0.13900
H834        H  0.04711813  0.10764187  0.57364389    -0.00300
H835        H  0.98457535  0.14292239  0.67252840     0.14200
H836        H  0.06193985  0.06229720  0.68527646     0.14000
C837        C  0.14833525  0.09902588  0.91741866     0.85800
C838        C  0.18100553  0.10041170  0.89003279    -0.54400
C839        C  0.21539088  0.10233754  0.90597711     0.08700
C840        C  0.21366210  0.10381762  0.95073469     0.19700
C841        C  0.15752025  0.06649302  0.94241006    -0.55100
C842        C  0.18988083  0.06933766  0.96230486     0.08800
C843        C  0.15391419  0.13396307  0.94202944    -0.54700
C844        C  0.18714057  0.13648697  0.96056279     0.09400
H845        H  0.17721100  0.09908232  0.85975557     0.13900
H846        H  0.24136064  0.10541031  0.96448354    -0.00300
H847        H  0.13797753  0.04396973  0.94671125     0.14200
H848        H  0.13447257  0.15655783  0.94367511     0.14000
C849        C  0.08736346  0.11692181  0.77637697    -0.23100
C850        C  0.05532948  0.11084762  0.79779032     0.08800
C851        C  0.02004808  0.11482090  0.78128860     0.09200
C852        C  0.01783914  0.12305314  0.74271773    -0.18000
C853        C  0.05023321  0.12639011  0.71999797    -0.28500
C854        C  0.08577102  0.12264204  0.73778907     0.17600
C855        C  0.06167801  0.09772844  0.83645176     0.11500
C856        C  0.98500410  0.10848259  0.80379427    -0.12800
H857        H  0.99050422  0.12383066  0.73018470     0.11800
C858        C  0.12279387  0.12152127  0.71706898    -0.23700
H859        H  0.11433968  0.11438021  0.78984980     0.07500
C860        C  0.08268313  0.06522902  0.84166485     0.03800
C861        C  0.10809726  0.06406511  0.87138710    -0.20900
C862        C  0.11078294  0.09371202  0.89715853    -0.13200
C863        C  0.08030900  0.11880648  0.89855182     0.12500
C864        C  0.05821333  0.12276528  0.86638025    -0.23600
C865        C  0.08047812  0.03349256  0.81402080    -0.06700
H866        H  0.12827571  0.04183469  0.87229155     0.14000
C867        C  0.06768525  0.13854905  0.93360926    -0.16900
H868        H  0.03931960  0.14598900  0.86425554     0.08400
H869        H  0.14593468  0.11243686  0.73547259     0.06200
H870        H  0.13078977  0.14944305  0.70730333     0.07400
H871        H  0.12201245  0.10149921  0.69336012     0.06500
H872        H  0.98346192  0.12880046  0.82726189     0.01300
H873        H  0.98503183  0.08004185  0.81538920     0.01800
H874        H  0.95960882  0.11167274  0.78636372     0.05300
H875        H  0.09817010  0.00995613  0.82281253     0.04300
H876        H  0.08984976  0.04223254  0.78572295    -0.01500
H877        H  0.05117851  0.02351211  0.81227434     0.00000
H878        H  0.07174300  0.16880065  0.93042449     0.03700
H879        H  0.08198741  0.12823475  0.95899931     0.05600
H880        H  0.03749597  0.13310051  0.93822064     0.06500
C881        C  0.45362410  0.19686536  0.01820825    -0.23100
C882        C  0.44047368  0.22506205  0.04194565     0.08800
C883        C  0.43762208  0.26125074  0.02778471     0.09200
C884        C  0.44547223  0.26779935  0.98986973    -0.18000
C885        C  0.45383530  0.23887085  0.96425873    -0.28500
C886        C  0.45987168  0.20291379  0.97959591     0.17600
C887        C  0.42452942  0.21344770  0.57802695     0.11500
C888        C  0.42360449  0.29294385  0.05187821    -0.12800
H889        H  0.44284803  0.29589234  0.98095953     0.11800
C890        C  0.47197544  0.17014095  0.95591948    -0.23700
H891        H  0.45645176  0.16762109  0.52747347     0.07500
C892        C  0.39074331  0.19330835  0.57979032     0.03800
C893        C  0.36911304  0.19559528  0.61246546    -0.20900
C894        C  0.37773753  0.22145306  0.64108627    -0.13200
C895        C  0.41509429  0.23444036  0.64272734     0.12500
C896        C  0.43807067  0.23034187  0.61088750    -0.23600
C897        C  0.37524927  0.17264167  0.54627181    -0.06700
H898        H  0.34254473  0.18119096  0.61320072     0.14000
C899        C  0.43251569  0.25052599  0.67746577    -0.16900
H900        H  0.46566528  0.24273286  0.61076392     0.08400
H901        H  0.45200092  0.16460884  0.93290134     0.06200
H902        H  0.47363383  0.14443547  0.97274332     0.07400
H903        H  0.50021264  0.17492703  0.94418850     0.06500
H904        H  0.44328164  0.29842040  0.07524238     0.01300
H905        H  0.39559394  0.28615269  0.06342158     0.01800
H906        H  0.42100234  0.31899009  0.03576198     0.05300
H907        H  0.34739841  0.16042318  0.55229549     0.04300
H908        H  0.39409643  0.14962084  0.53827628    -0.01500
H909        H  0.37207257  0.19175122  0.52222346     0.00000
H910        H  0.41300950  0.91173400  0.70393474     0.03700
H911        H  0.44024546  0.27978476  0.67230778     0.05600
H912        H  0.45830375  0.23497599  0.68409168     0.06500
C913        C  0.97635276  0.28497411  0.81351837    -0.23100
C914        C  0.95096744  0.30989009  0.79787867     0.08800
C915        C  0.93427693  0.33682538  0.82135430     0.09200
C916        C  0.94101845  0.33604008  0.86004117    -0.18000
C917        C  0.96040331  0.30655689  0.87677735    -0.28500
C918        C  0.98176729  0.28317669  0.85257557     0.17600
C919        C  0.93340324  0.30000782  0.76152635     0.11500
C920        C  0.90789905  0.03069507  0.80530762    -0.12800
H921        H  0.92911388  0.35782259  0.87704862     0.11800
C922        C  0.00956938  0.25516848  0.86633607    -0.23700
H923        H  0.98971120  0.26470066  0.79538204     0.07500
C924        C  0.93501441  0.32232634  0.72930074     0.03800
C925        C  0.90799444  0.31721293  0.70101516    -0.20900
C926        C  0.88004054  0.28954562  0.70392408    -0.13200
C927        C  0.88323302  0.26345030  0.73379872     0.12500
C928        C  0.90944745  0.26955413  0.76202720    -0.23600
C929        C  0.96866539  0.01574465  0.72383507    -0.06700
H930        H  0.90889344  0.33548975  0.67727555     0.14000
C931        C  0.85850716  0.22981129  0.73937062    -0.16900
H932        H  0.90944361  0.25153364  0.78628752     0.08400
H933        H  0.03700065  0.26034569  0.85271622     0.06200
H934        H  0.00003027  0.22683554  0.85867097     0.07400
H935        H  0.01423623  0.25636381  0.89697135     0.06500
H936        H  0.88210708  0.34854002  0.79388000     0.01300
H937        H  0.92114434  0.04946851  0.78478731     0.01800
H938        H  0.89531883  0.04828652  0.82768011     0.05300
H939        H  0.96606015  0.03009049  0.69649869     0.04300
H940        H  0.99309321  0.33603899  0.72374206    -0.01500
H941        H  0.96860308  0.03696965  0.74639299     0.00000
H942        H  0.87610182  0.20457931  0.73951451     0.03700
H943        H  0.83670241  0.22538209  0.71813556     0.05600
H944        H  0.84406418  0.23210309  0.76691974     0.06500
C945        C  0.52083720  0.10502868  0.56271708    -0.23100
C946        C  0.54626609  0.08153195  0.54483525     0.08800
C947        C  0.56323665  0.05301625  0.56545070     0.09200
C948        C  0.55782991  0.05165703  0.60433818    -0.18000
C949        C  0.53768880  0.07935702  0.62355083    -0.28500
C950        C  0.51554672  0.10393224  0.60172216     0.17600
C951        C  0.56363886  0.09409478  0.50955676     0.11500
C952        C  0.58999263  0.02606609  0.54725147    -0.11600
H953        H  0.57104566  0.02959689  0.61944103     0.11800
C954        C  0.48753917  0.13088884  0.61793883    -0.23700
H955        H  0.50736216  0.12642347  0.54653276     0.07500
C956        C  0.56011189  0.07492329  0.47531964     0.03800
C957        C  0.58725977  0.08046719  0.44730734    -0.20900
C958        C  0.61688663  0.10538159  0.95161315    -0.13200
C959        C  0.61625419  0.12913019  0.48495104     0.12500
C960        C  0.58954335  0.12282717  0.51277549    -0.23600
C961        C  0.52765308  0.04915667  0.46839587    -0.06700
H962        H  0.58490931  0.06352691  0.92120595     0.14000
C963        C  0.64337819  0.16040128  0.49288159    -0.16900
H964        H  0.59078431  0.13876976  0.53870973     0.08400
H965        H  0.46000704  0.12616818  0.60447261     0.06200
H966        H  0.49665549  0.15967168  0.61199201     0.07400
H967        H  0.48319197  0.12833999  0.64851089     0.06500
H968        H  0.61349071  0.04124027  0.53393976     0.01300
H969        H  0.57545511  0.00920002  0.52569757     0.01800
H970        H  0.60198950  0.00665925  0.56797394     0.05300
H971        H  0.52898034  0.03638501  0.43995194     0.04300
H972        H  0.50123214  0.06497124  0.47064900    -0.01500
H973        H  0.52695726  0.02662843  0.48929086     0.00000
H974        H  0.62768609  0.18672275  0.49564364     0.03700
H975        H  0.66285192  0.16653620  0.96864636     0.05600
H976        H  0.65794268  0.15514672  0.51977408     0.06500
Zr977      Zr  0.60673360  0.53763650  0.31188600     2.17500
O978        O  0.58601422  0.48867749  0.35415224    -0.52000
O979        O  0.57657095  0.49697195  0.26664687    -0.75200
O980        O  0.54601035  0.55076187  0.34227513    -0.82000
O981        O  0.71056227  0.51591661  0.33157015    -0.83700
O982        O  0.52371987  0.60442907  0.31847659    -0.79400
O983        O  0.65250083  0.49103630  0.33125080    -0.91000
O984        O  0.58409773  0.52028387  0.20822200    -0.77000
O985        O  0.57906237  0.57706841  0.26688427    -0.86500
O986        O  0.64702846  0.53553149  0.25818259    -0.86100
O987        O  0.60514259  0.59734327  0.34226999    -0.72900
O988        O  0.66608299  0.56091733  0.33117215    -0.85000
Zr989      Zr  0.67549937  0.66171371  0.26320184     2.26400
Zr990      Zr  0.57809638  0.63702629  0.29599978     2.06300
Zr991      Zr  0.70649345  0.55959738  0.27801281     2.10000
Zr992      Zr  0.61963196  0.57617880  0.21404384     1.78800
O993        O  0.77187043  0.56247670  0.29568743    -0.93800
O994        O  0.56179207  0.59192966  0.18195865    -0.41600
O995        O  0.67754424  0.60083535  0.23542119    -0.78300
O996        O  0.61625838  0.63655221  0.24070634    -0.97000
O997        O  0.63680157  0.66022128  0.31762512    -0.90300
O998        O  0.70546606  0.62057486  0.30637532    -0.93100
C999        C  0.57204221  0.49587097  0.23099620     1.00600
C1000       C  0.68579595  0.49336572  0.34475936     1.13600
C1001       C  0.52034758  0.57536793  0.33847887     1.04400
O1002       O  0.52499762  0.65300832  0.25685895    -0.95300
O1003       O  0.58387526  0.36683941  0.27586800    -0.91000
O1004       O  0.63144565  0.36905666  0.23416202    -0.84200
C1005       C  0.59874216  0.37860754  0.24555651     1.11000
O1006       O  0.65820608  0.58745361  0.42032632    -0.97200
Zr1007     Zr  0.66578115  0.61931954  0.36071228     1.88900
O1008       O  0.68428751  0.37496583  0.31667017    -0.73900
O1009       O  0.55445631  0.67087943  0.35048041    -0.53100
O1010       O  0.62817659  0.65058267  0.40828953    -0.97800
O1011       O  0.72253696  0.59700697  0.39031343    -0.55000
O1012       O  0.70183804  0.67514827  0.36741021    -0.74400
C1013       C  0.69374357  0.37412866  0.35178895     0.97900
O1014       O  0.71494295  0.71179588  0.24021438    -0.63200
O1015       O  0.72048088  0.50218299  0.24450200    -0.58000
O1016       O  0.72654200  0.64642453  0.21758193    -0.94700
O1017       O  0.74153926  0.58548895  0.22428547    -0.93100
O1018       O  0.65655733  0.53763071  0.17176840    -0.93500
O1019       O  0.63261163  0.60609204  0.15429804    -0.92300
C1020       C  0.74533376  0.61716467  0.20800375     1.16800
H1021       H  0.64920848  0.51065493  0.24830964     0.32700
H1022       H  0.60399336  0.64888625  0.22025567     0.43600
H1023       H  0.73035006  0.62909062  0.31234056     0.37100
H1024       H  0.58986288  0.59706249  0.36468506     0.33600
H1025       H  0.56323348  0.57912069  0.15731476     0.25400
H1026       H  0.57122840  0.69257508  0.35308676     0.31300
H1027       H  0.64626766  0.65956059  0.42727364     0.37200
H1028       H  0.68273638  0.54487966  0.17682735     0.31700
H1029       H  0.73684340  0.50961165  0.22338905     0.30600
H1030       H  0.78354947  0.54230575  0.28087376     0.32200
H1031       H  0.74279991  0.61292953  0.38046961     0.31200
H1032       H  0.64716838  0.62848925  0.16107907     0.35200
H1033       H  0.69945980  0.73432558  0.24264272     0.27900
H1034       H  0.56254268  0.47895725  0.34323232     0.32200
H1035       H  0.63999092  0.56744327  0.41501266     0.35000
H1036       H  0.73702716  0.48835878  0.26156652     0.27600
H1037       H  0.73447102  0.71490857  0.25959953     0.40500
H1038       H  0.53404822  0.65014474  0.23070048     0.30600
H1039       H  0.54182237  0.57861574  0.19568493     0.38200
H1040       H  0.72716105  0.57247558  0.37870043     0.30000
H1041       H  0.53041908  0.68135349  0.34211478     0.30100
H1042       H  0.57838914  0.50101880  0.37787263     0.30400
C1043       C  0.54124518  0.41839656  0.16446681     0.85800
C1044       C  0.57248615  0.39536667  0.18331194    -0.54400
C1045       C  0.57480760  0.40075465  0.22130200     0.08700
C1046       C  0.54627987  0.42808146  0.23713290     0.19700
C1047       C  0.50575918  0.40805639  0.18608367    -0.55100
C1048       C  0.50821381  0.41362302  0.22385410     0.08800
C1049       C  0.55109509  0.45811023  0.17669585    -0.54700
C1050       C  0.55394248  0.46310838  0.21457549     0.09400
H1051       H  0.59114409  0.37637409  0.16909330     0.13900
H1052       H  0.54804731  0.43200966  0.26806116    -0.00300
H1053       H  0.48005275  0.39958656  0.17234762     0.14200
H1054       H  0.55809599  0.47966626  0.15673374     0.14000
C1055       C  0.65244179  0.44011838  0.42639199     0.85800
C1056       C  0.68650494  0.43480705  0.45081192    -0.54400
C1057       C  0.71970974  0.43515463  0.43265557     0.08700
C1058       C  0.71537673  0.43831182  0.38827293     0.19700
C1059       C  0.66040313  0.47482555  0.40386681    -0.55100
C1060       C  0.69141373  0.47380388  0.38134991     0.08800
C1061       C  0.65503620  0.40841027  0.39708283    -0.54700
C1062       C  0.68765744  0.40687151  0.37705246     0.09400
H1063       H  0.68449284  0.43132194  0.98147719     0.13900
H1064       H  0.74227470  0.43793712  0.37274625    -0.00300
H1065       H  0.63981816  0.49667154  0.40197522     0.14200
H1066       H  0.63355964  0.38798861  0.39221240     0.14000
Zr1067     Zr  0.89614339  0.50673685  0.06460454     2.17500
O1068       O  0.92245889  0.55827520  0.10071698    -0.52000
O1069       O  0.92485056  0.54952753  0.02022356    -0.75200
O1070       O  0.95401927  0.48956680  0.09760621    -0.82000
O1071       O  0.79095692  0.54281842  0.08065940    -0.83700
O1072       O  0.97103369  0.43239855  0.07699431    -0.79400
O1073       O  0.85190128  0.54657152  0.09632443    -0.91000
O1074       O  0.91778542  0.52686216  0.96123893    -0.77000
O1075       O  0.92157287  0.46614450  0.01875262    -0.86500
O1076       O  0.85532770  0.51259490  0.01186261    -0.86100
O1077       O  0.89290002  0.44694258  0.09391792    -0.72900
O1078       O  0.83456924  0.48873169  0.08319104    -0.85000
Zr1079     Zr  0.81907977  0.38859364  0.01367048     2.26400
Zr1080     Zr  0.91760365  0.40606735  0.04662211     2.06300
Zr1081     Zr  0.79369993  0.49269736  0.03095278     2.10000
Zr1082     Zr  0.88082998  0.47097867  0.96644986     1.78800
O1083       O  0.73006936  0.49061389  0.05513616    -0.93800
O1084       O  0.94092447  0.45106784  0.43442192    -0.41600
O1085       O  0.82122667  0.45001520  0.98778211    -0.78300
O1086       O  0.88002044  0.40970905  0.99119083    -0.97000
O1087       O  0.85718611  0.38812365  0.06830621    -0.90300
O1088       O  0.79114495  0.43137251  0.05773209    -0.93100
C1089       C  0.92941810  0.55141977  0.98454339     1.00600
C1090       C  0.81778370  0.55658020  0.10081690     1.13600
C1091       C  0.97662934  0.46195455  0.09599247     1.04400
O1092       O  0.96597240  0.39087528  0.00090502    -0.95300
O1093       O  0.90217156  0.34217783  0.03308939    -0.91000
O1094       O  0.86191584  0.34339089  0.98550194    -0.84200
C1095       C  0.89262879  0.33224879  0.00017574     1.11000
O1096       O  0.83570686  0.46639788  0.16991259    -0.97200
Zr1097     Zr  0.83025395  0.43046225  0.11200132     1.88900
O1098       O  0.81234542  0.34242136  0.06605030    -0.73900
O1099       O  0.94896762  0.36713361  0.09228742    -0.53100
O1100       O  0.86345064  0.40067293  0.16299316    -0.97800
O1101       O  0.77194029  0.45202042  0.13986417    -0.55000
O1102       O  0.79461988  0.37427157  0.11752404    -0.74400
C1103       C  0.80296667  0.34400632  0.10122484     0.97900
O1104       O  0.77472472  0.34428439  0.49024038    -0.63200
O1105       O  0.77895992  0.54721440  0.99405600    -0.58000
O1106       O  0.77092926  0.40649999  0.96665661    -0.94700
O1107       O  0.75721918  0.46744694  0.97700405    -0.93100
O1108       O  0.85071509  0.50831243  0.41848931    -0.93500
O1109       O  0.87114513  0.43971543  0.40490179    -0.92300
C1110       C  0.75287597  0.43647365  0.95874727     1.16800
H1111       H  0.85451800  0.53768218  0.00276194     0.32700
H1112       H  0.89136696  0.39616428  0.97079880     0.43600
H1113       H  0.76588496  0.42388890  0.06371698     0.37100
H1114       H  0.90741740  0.44573461  0.11664100     0.33600
H1115       H  0.94510702  0.46899590  0.41392028     0.25400
H1116       H  0.92854271  0.35495388  0.10640359     0.31300
H1117       H  0.84363752  0.39166619  0.18013934     0.37200
H1118       H  0.82472852  0.49891877  0.41856165     0.31700
H1119       H  0.75138385  0.54863180  0.99470409     0.30600
H1120       H  0.71885919  0.46821659  0.04355800     0.32200
H1121       H  0.75403851  0.43130024  0.13685986     0.31200
H1122       H  0.84940681  0.42346781  0.40989003     0.35200
H1123       H  0.78606321  0.32007068  0.49607607     0.27900
H1124       H  0.94775299  0.56249818  0.09029241     0.32200
H1125       H  0.84386540  0.49130759  0.16180938     0.35000
H1126       H  0.78739679  0.56852081  0.00951497     0.27600
H1127       H  0.75324904  0.34626527  0.50772445     0.40500
H1128       H  0.98763131  0.38333917  0.01619376     0.30600
H1129       H  0.96081570  0.45675334  0.45281836     0.38200
H1130       H  0.76287416  0.47129508  0.12257464     0.30000
H1131       H  0.96065775  0.34698425  0.07742112     0.30100
H1132       H  0.92671226  0.54870299  0.12632613     0.30400
C1133       C  0.95663801  0.63503390  0.41866888     0.85800
C1134       C  0.92378222  0.65474290  0.43863772    -0.54400
C1135       C  0.92198557  0.64661856  0.97753200     0.08700
C1136       C  0.95225849  0.62074424  0.99269890     0.19700
C1137       C  0.99133177  0.64652932  0.44110637    -0.55100
C1138       C  0.99004728  0.63735435  0.97986045     0.08800
C1139       C  0.94936553  0.59390142  0.42848298    -0.54700
C1140       C  0.94662524  0.58543271  0.96901723     0.09400
H1141       H  0.90252611  0.33558359  0.42713672     0.13900
H1142       H  0.95037132  0.61633180  0.02349257    -0.00300
H1143       H  0.01671938  0.65650064  0.42774931     0.14200
H1144       H  0.94416790  0.57283235  0.40721156     0.14000
C1145       C  0.84669787  0.62196744  0.17890465     0.85800
C1146       C  0.81142018  0.62534441  0.20212269    -0.54400
C1147       C  0.77904079  0.62128056  0.18313101     0.08700
C1148       C  0.78508980  0.61616386  0.13904987     0.19700
C1149       C  0.84293019  0.58609161  0.15701632    -0.55100
C1150       C  0.81248178  0.58272514  0.13390980     0.08800
C1151       C  0.84247252  0.65185350  0.14857103    -0.54700
C1152       C  0.81034549  0.64954680  0.12781951     0.09400
H1153       H  0.81211150  0.62867990  0.23252542     0.13900
H1154       H  0.75892013  0.61362947  0.12266640    -0.00300
H1155       H  0.86552831  0.56614281  0.15750689     0.14200
H1156       H  0.86393950  0.33531239  0.14244842     0.14000
Zr1157     Zr  0.39302602  0.36895128  0.27515316     2.17500
O1158       O  0.42183321  0.31949707  0.23849067    -0.52000
O1159       O  0.41933234  0.65830987  0.31774595    -0.75200
O1160       O  0.45097206  0.38723742  0.24354435    -0.82000
O1161       O  0.29294121  0.66016281  0.25852809    -0.83700
O1162       O  0.47078494  0.44102836  0.26998587    -0.79400
O1163       O  0.35325706  0.66004848  0.23938385    -0.91000
O1164       O  0.41455303  0.34921309  0.37818567    -0.77000
O1165       O  0.41766776  0.40877801  0.32196391    -0.86500
O1166       O  0.35198235  0.36163217  0.32765873    -0.86100
O1167       O  0.39043907  0.42906958  0.24647903    -0.72900
O1168       O  0.33142970  0.38513092  0.25469431    -0.85000
Zr1169     Zr  0.31567507  0.48489437  0.32856272     2.26400
Zr1170     Zr  0.41476563  0.46885414  0.29449797     2.06300
Zr1171     Zr  0.29086648  0.38022648  0.30755577     2.10000
Zr1172     Zr  0.37622882  0.40319398  0.37392659     1.78800
O1173       O  0.22976009  0.38163417  0.27788925    -0.93800
O1174       O  0.43180490  0.42244488  0.40839255    -0.41600
O1175       O  0.31687511  0.42267383  0.35233394    -0.78300
O1176       O  0.37677850  0.46445702  0.34996631    -0.97000
O1177       O  0.35412081  0.48707777  0.27344308    -0.90300
O1178       O  0.28812335  0.44241432  0.28338253    -0.93100
C1179       C  0.42503440  0.65713401  0.35327341     1.00600
C1180       C  0.31990891  0.64746796  0.23742576     1.13600
C1181       C  0.47501174  0.41330923  0.24794890     1.04400
O1182       O  0.46250453  0.48791465  0.33922272    -0.95300
O1183       O  0.39984866  0.53245180  0.30782247    -0.91000
O1184       O  0.35956936  0.53003276  0.35571930    -0.84200
C1185       C  0.39000829  0.54200852  0.34077585     1.11000
O1186       O  0.29800541  0.39082232  0.20044780    -0.97200
Zr1187     Zr  0.32750447  0.44504643  0.22872004     1.88900
O1188       O  0.30185490  0.53132532  0.27915718    -0.73900
O1189       O  0.44525038  0.50426434  0.24510808    -0.53100
O1190       O  0.37095107  0.46008531  0.17777079    -0.97800
O1191       O  0.29827101  0.46440755  0.17007469    -0.55000
O1192       O  0.28094194  0.49299968  0.23548337    -0.74400
C1193       C  0.29031853  0.52539792  0.24552447     0.97900
O1194       O  0.27497185  0.53085714  0.35770183    -0.63200
O1195       O  0.27263255  0.32576603  0.34319797    -0.58000
O1196       O  0.26741472  0.46532151  0.37450506    -0.94700
O1197       O  0.25213951  0.40530787  0.36046581    -0.93100
O1198       O  0.33942290  0.36439974  0.41585337    -0.93500
O1199       O  0.36109849  0.43234334  0.43395245    -0.92300
C1200       C  0.24829060  0.43548773  0.38027322     1.16800
H1201       H  0.35124562  0.33639078  0.33636846     0.32700
H1202       H  0.38812754  0.47756034  0.37068882     0.43600
H1203       H  0.26222890  0.44826261  0.27890042     0.37100
H1204       H  0.40617143  0.43032410  0.22461102     0.33600
H1205       H  0.43107789  0.40824508  0.43205858     0.25400
H1206       H  0.42443954  0.51518907  0.23080479     0.31300
H1207       H  0.37449381  0.43655367  0.16378689     0.37200
H1208       H  0.34940485  0.33908948  0.41244041     0.31700
H1209       H  0.27967329  0.33166292  0.36943156     0.30600
H1210       H  0.21172425  0.37867477  0.29878718     0.32200
H1211       H  0.27154279  0.45788936  0.17283422     0.31200
H1212       H  0.34342777  0.45230826  0.42757746     0.35200
H1213       H  0.28622505  0.55505593  0.35121913     0.27900
H1214       H  0.44433179  0.64895823  0.24627147     0.32200
H1215       H  0.31497102  0.38333974  0.17974228     0.35000
H1216       H  0.27634265  0.63822490  0.32786162     0.27600
H1217       H  0.25161647  0.52979384  0.34294373     0.40500
H1218       H  0.46889119  0.46512264  0.35296325     0.30600
H1219       H  0.45301595  0.41172266  0.39420041     0.38200
H1220       H  0.30733162  0.44734184  0.15020478     0.30000
H1221       H  0.45714129  0.52550925  0.25815751     0.30100
H1222       H  0.42518483  0.32995176  0.21307614     0.30400
C1223       C  0.45200678  0.57913008  0.42036008     0.85800
C1224       C  0.41981734  0.55774912  0.40169404    -0.54400
C1225       C  0.41752532  0.56218114  0.36380839     0.08700
C1226       C  0.44785555  0.58772336  0.34745168     0.19700
C1227       C  0.48750564  0.56786357  0.39896256    -0.55100
C1228       C  0.48572780  0.57252773  0.36101327     0.08800
C1229       C  0.44508292  0.61947139  0.40753333    -0.54700
C1230       C  0.44216084  0.62374701  0.36951372     0.09400
H1231       H  0.40040264  0.54047956  0.41727357     0.13900
H1232       H  0.44618140  0.59096963  0.31649905    -0.00300
H1233       H  0.51340661  0.56130408  0.41311798     0.14200
H1234       H  0.43929344  0.64261221  0.42588190     0.14000
C1235       C  0.34400811  0.57021346  0.16551424     0.85800
C1236       C  0.31012226  0.57606590  0.14072364    -0.54400
C1237       C  0.27809319  0.58504154  0.15847741     0.08700
C1238       C  0.28289486  0.58861267  0.20269504     0.19700
C1239       C  0.34670507  0.60716559  0.18689397    -0.55100
C1240       C  0.31573794  0.61671685  0.20832821     0.08800
C1241       C  0.33215237  0.54246486  0.19498771    -0.54700
C1242       C  0.30091911  0.55124203  0.21491003     0.09400
H1243       H  0.31150078  0.57409087  0.11022224     0.13900
H1244       H  0.25709908  0.59587102  0.21837465    -0.00300
H1245       H  0.37142804  0.62432539  0.18553586     0.14200
H1246       H  0.34864520  0.51833314  0.20121945     0.14000
Zr1247     Zr  0.11056717  0.33894076  0.52978594     2.17500
O1248       O  0.08822151  0.39030696  0.49177354    -0.52000
O1249       O  0.07866695  0.37887164  0.07334437    -0.75200
O1250       O  0.05000427  0.32590541  0.49869785    -0.82000
O1251       O  0.21397866  0.35991952  0.50892406    -0.83700
O1252       O  0.02642638  0.60708147  0.52181571    -0.79400
O1253       O  0.15786688  0.38658196  0.51687162    -0.91000
O1254       O  0.08585601  0.35517449  0.13155858    -0.77000
O1255       O  0.08284414  0.63266832  0.07408003    -0.86500
O1256       O  0.15028967  0.34092401  0.08150339    -0.86100
O1257       O  0.10803243  0.61286793  0.49782702    -0.72900
O1258       O  0.16941819  0.64892022  0.50855699    -0.85000
Zr1259     Zr  0.17897047  0.54827511  0.07304770     2.26400
Zr1260     Zr  0.08141761  0.57367001  0.04284522     2.06300
Zr1261     Zr  0.21142820  0.65018357  0.06140599     2.10000
Zr1262     Zr  0.12408553  0.63243229  0.12602950     1.78800
O1263       O  0.27542743  0.64496128  0.54072480    -0.93800
O1264       O  0.06873663  0.61282161  0.16059310    -0.41600
O1265       O  0.18127286  0.60827692  0.10233069    -0.78300
O1266       O  0.11994898  0.57256206  0.09753929    -0.97000
O1267       O  0.13986802  0.55164702  0.01958670    -0.90300
O1268       O  0.20978305  0.59006515  0.03102785    -0.93100
C1269       C  0.07415477  0.37983769  0.10896576     1.00600
C1270       C  0.18895604  0.38341172  0.49905274     1.13600
C1271       C  0.02386263  0.63574275  0.50118613     1.04400
O1272       O  0.02881208  0.55438323  0.08161502    -0.95300
O1273       O  0.08613361  0.50886214  0.05895365    -0.91000
O1274       O  0.13395931  0.50550682  0.09986412    -0.84200
C1275       C  0.10111046  0.49639461  0.08872165     1.11000
O1276       O  0.16288112  0.62474799  0.42062919    -0.97200
Zr1277     Zr  0.16861510  0.59042407  0.47886320     1.88900
O1278       O  0.18676142  0.50351456  0.01867825    -0.73900
O1279       O  0.05132979  0.53688302  0.49491088    -0.53100
O1280       O  0.13457621  0.55767665  0.42963867    -0.97800
O1281       O  0.22811925  0.60984627  0.45189377    -0.55000
O1282       O  0.19935433  0.53201220  0.46950144    -0.74400
C1283       C  0.19287894  0.50217719  0.48716287     0.97900
O1284       O  0.22021661  0.49915322  0.09405032    -0.63200
O1285       O  0.22718956  0.37462331  0.09458021    -0.58000
O1286       O  0.22675485  0.56259048  0.12171507    -0.94700
O1287       O  0.24432805  0.62304150  0.11598832    -0.93100
O1288       O  0.15848652  0.33770138  0.16871600    -0.93500
O1289       O  0.14402725  0.60184518  0.18325487    -0.92300
C1290       C  0.24601975  0.59120894  0.13236946     1.16800
H1291       H  0.15255991  0.36563690  0.09186413     0.32700
H1292       H  0.10785582  0.55925329  0.11756356     0.43600
H1293       H  0.23340244  0.57968033  0.52628139     0.37100
H1294       H  0.09282151  0.61338779  0.47553405     0.33600
H1295       H  0.06868778  0.62839874  0.18359301     0.25400
H1296       H  0.02749254  0.52801113  0.50581391     0.31300
H1297       H  0.10796017  0.56348761  0.43405542     0.37200
H1298       H  0.14034819  0.34589620  0.18808045     0.31700
H1299       H  0.24619146  0.36716082  0.11311947     0.30600
H1300       H  0.28102820  0.66900602  0.52877330     0.32200
H1301       H  0.24537697  0.58898102  0.45611458     0.31200
H1302       H  0.14730339  0.57557284  0.17590768     0.35200
H1303       H  0.20877660  0.47591735  0.08460777     0.27900
H1304       H  0.06567605  0.39960301  0.50487044     0.32200
H1305       H  0.14328127  0.64331683  0.42586923     0.35000
H1306       H  0.24128705  0.38926389  0.07585846     0.27600
H1307       H  0.24319739  0.50211970  0.07881026     0.40500
H1308       H  0.02874583  0.57184019  0.10314097     0.30600
H1309       H  0.04752096  0.62219117  0.14574557     0.38200
H1310       H  0.23723966  0.62975352  0.46879654     0.30000
H1311       H  0.04389224  0.55464746  0.47530304     0.30100
H1312       H  0.07878007  0.37962755  0.46793725     0.30400
C1313       C  0.04936656  0.45972160  0.17462516     0.85800
C1314       C  0.07694814  0.48330119  0.15187892    -0.54400
C1315       C  0.07739670  0.47554072  0.11442370     0.08700
C1316       C  0.04796741  0.44738199  0.10218605     0.19700
C1317       C  0.01152753  0.46889138  0.15621553    -0.55100
C1318       C  0.01098147  0.46228406  0.11830889     0.08800
C1319       C  0.05723759  0.41954539  0.16308338    -0.54700
C1320       C  0.05714493  0.41314502  0.12538786     0.09400
H1321       H  0.09240549  0.50645932  0.16340338     0.13900
H1322       H  0.04744292  0.44237935  0.07135392    -0.00300
H1323       H  0.98710547  0.47851089  0.17142103     0.14200
H1324       H  0.06523001  0.39861294  0.18326443     0.14000
C1325       C  0.14864325  0.43219450  0.41792723     0.85800
C1326       C  0.18147200  0.43563282  0.39091726    -0.54400
C1327       C  0.21564356  0.43722764  0.40700824     0.08700
C1328       C  0.21368738  0.43720450  0.45163733     0.19700
C1329       C  0.15843759  0.39893222  0.44178355    -0.55100
C1330       C  0.19075437  0.40186047  0.46182131     0.08800
C1331       C  0.15302616  0.46619390  0.44411668    -0.54700
C1332       C  0.18630470  0.46886073  0.46262951     0.09400
H1333       H  0.17799346  0.43541721  0.36057136     0.13900
H1334       H  0.24131644  0.43888950  0.46551903    -0.00300
H1335       H  0.13906640  0.37615769  0.44569398     0.14200
H1336       H  0.13279952  0.48800165  0.44693391     0.14000
C1337       C  0.08983759  0.45898012  0.27448573    -0.23100
C1338       C  0.05894413  0.44708791  0.29496516     0.08800
C1339       C  0.02389249  0.44484805  0.27770458     0.09200
C1340       C  0.02093877  0.45354350  0.23938275    -0.18000
C1341       C  0.05261886  0.46295584  0.21741937    -0.28500
C1342       C  0.08812184  0.46411086  0.23579402     0.17600
C1343       C  0.06685360  0.43283547  0.33277255     0.11500
C1344       C  0.99027416  0.43135553  0.29912189    -0.12800
H1345       H  0.99415486  0.44954616  0.22610335     0.11800
C1346       C  0.12542741  0.46643391  0.21579317    -0.23700
H1347       H  0.11664228  0.46044049  0.28853036     0.07500
C1348       C  0.08998732  0.40157164  0.33648658     0.03800
C1349       C  0.11214400  0.39853790  0.36851286    -0.20900
C1350       C  0.11197635  0.42648913  0.39630432    -0.13200
C1351       C  0.08091108  0.45082455  0.39710320     0.12500
C1352       C  0.06029184  0.45554040  0.36405586    -0.23600
C1353       C  0.09391371  0.37343892  0.30518974    -0.06700
H1354       H  0.13323223  0.37713754  0.36933793     0.14000
C1355       C  0.06656198  0.46942266  0.43212205    -0.16900
H1356       H  0.04013221  0.47774134  0.36229346     0.08400
H1357       H  0.14889921  0.45872125  0.23443907     0.06200
H1358       H  0.13137203  0.49517426  0.20699749     0.07400
H1359       H  0.12662633  0.44674266  0.19177987     0.06500
H1360       H  0.98496852  0.44983491  0.32357927     0.01300
H1361       H  0.99521177  0.40279517  0.30923835     0.01800
H1362       H  0.96487625  0.43104430  0.28136946     0.05300
H1363       H  0.11266503  0.35043170  0.31319012     0.04300
H1364       H  0.10573913  0.38638346  0.27961275    -0.01500
H1365       H  0.06611556  0.36151390  0.29848785     0.00000
H1366       H  0.07042523  0.49981786  0.43005371     0.03700
H1367       H  0.07993764  0.45854419  0.45775974     0.05600
H1368       H  0.03627361  0.46352271  0.43524844     0.06500
C1369       C  0.45118526  0.52911288  0.51611767    -0.23100
C1370       C  0.43947470  0.55764319  0.54013754     0.08800
C1371       C  0.43917134  0.59426542  0.52676738     0.09200
C1372       C  0.44747360  0.60090040  0.48901281    -0.18000
C1373       C  0.45355426  0.57180787  0.46300531    -0.28500
C1374       C  0.45778149  0.53535909  0.47770292     0.17600
C1375       C  0.42427745  0.54956003  0.07882091     0.11500
C1376       C  0.42794400  0.62653863  0.55154259    -0.12800
H1377       H  0.44761391  0.62930609  0.48057385     0.11800
C1378       C  0.46844403  0.50236670  0.45361684    -0.23700
H1379       H  0.45702276  0.50310739  0.02947130     0.07500
C1380       C  0.39090479  0.52868245  0.08038415     0.03800
C1381       C  0.36892417  0.53056713  0.11285484    -0.20900
C1382       C  0.37720731  0.55603222  0.14188308    -0.13200
C1383       C  0.41442230  0.56923613  0.14394290     0.12500
C1384       C  0.43735968  0.56652387  0.11189146    -0.23600
C1385       C  0.37628922  0.50730454  0.04692547    -0.06700
H1386       H  0.34248261  0.51590920  0.11330201     0.14000
C1387       C  0.43177253  0.58340927  0.17956929    -0.16900
H1388       H  0.46476953  0.57930407  0.11208566     0.08400
H1389       H  0.44793077  0.49748411  0.43096532     0.06200
H1390       H  0.46963459  0.47652208  0.47027236     0.07400
H1391       H  0.49657575  0.50640743  0.44134927     0.06500
H1392       H  0.44843415  0.63030133  0.57452003     0.01300
H1393       H  0.39975170  0.62163320  0.56359114     0.01800
H1394       H  0.42696118  0.65293051  0.53579520     0.05300
H1395       H  0.34851086  0.49479958  0.05264716     0.04300
H1396       H  0.39554697  0.48437891  0.03970203    -0.01500
H1397       H  0.37329168  0.52595969  0.02249182     0.00000
H1398       H  0.41245594  0.24742708  0.20411695     0.03700
H1399       H  0.44017957  0.61269360  0.17591163     0.05600
H1400       H  0.45714645  0.56701333  0.18571114     0.06500
C1401       C  0.97916407  0.62039599  0.31344977    -0.23100
C1402       C  0.95224196  0.64309348  0.29712278     0.08800
C1403       C  0.93316956  0.66902698  0.31981540     0.09200
C1404       C  0.93937232  0.66947782  0.35858557    -0.18000
C1405       C  0.96087524  0.64193413  0.37614314    -0.28500
C1406       C  0.98411166  0.61962368  0.35260196     0.17600
C1407       C  0.93592368  0.63176675  0.26072004     0.11500
C1408       C  0.90374142  0.36062190  0.30814934    -0.12800
H1409       H  0.92546292  0.69058315  0.37481802     0.11800
C1410       C  0.01324069  0.59335653  0.36712543    -0.23700
H1411       H  0.99416450  0.60084083  0.29582291     0.07500
C1412       C  0.93732879  0.65383107  0.22837721     0.03800
C1413       C  0.90995624  0.64880101  0.20050373    -0.20900
C1414       C  0.88127435  0.62201372  0.20440413    -0.13200
C1415       C  0.88440179  0.59616841  0.23450752     0.12500
C1416       C  0.91164513  0.60162186  0.26187578    -0.23600
C1417       C  0.96586454  0.34567189  0.22623863    -0.06700
H1418       H  0.91093813  0.66678679  0.17655961     0.14000
C1419       C  0.85860407  0.56362089  0.24130979    -0.16900
H1420       H  0.91172143  0.58391841  0.28638187     0.08400
H1421       H  0.04068517  0.60035264  0.35439557     0.06200
H1422       H  0.00575003  0.56455537  0.35899868     0.07400
H1423       H  0.01684696  0.59431883  0.39788120     0.06500
H1424       H  0.88066650  0.67631084  0.29128985     0.01300
H1425       H  0.91618281  0.37912178  0.28686583     0.01800
H1426       H  0.89168562  0.37841162  0.33065613     0.05300
H1427       H  0.96397776  0.35982971  0.19873242     0.04300
H1428       H  0.99526650  0.66847352  0.22349165    -0.01500
H1429       H  0.96486664  0.36705905  0.24859604     0.00000
H1430       H  0.87512215  0.53768479  0.24092506     0.03700
H1431       H  0.83574403  0.56003561  0.22104701     0.05600
H1432       H  0.84556846  0.56673082  0.26946462     0.06500
C1433       C  0.52156357  0.44538429  0.06239479    -0.23100
C1434       C  0.54671720  0.42240189  0.04354722     0.08800
C1435       C  0.56328005  0.39272756  0.06274714     0.09200
C1436       C  0.55662864  0.38872889  0.10122525    -0.18000
C1437       C  0.53650422  0.41550305  0.12175101    -0.28500
C1438       C  0.51554885  0.44209686  0.10113609     0.17600
C1439       C  0.56338699  0.43549220  0.00818708     0.11500
C1440       C  0.59117347  0.36752031  0.04371232    -0.11600
H1441       H  0.56937673  0.36567577  0.11516117     0.11800
C1442       C  0.48848275  0.46928327  0.11859066    -0.23700
H1443       H  0.50890235  0.46798012  0.04731716     0.07500
C1444       C  0.55851773  0.41696346  0.97375525     0.03800
C1445       C  0.58560056  0.42148336  0.94550753    -0.20900
C1446       C  0.61695860  0.44306990  0.45063520    -0.13200
C1447       C  0.61703845  0.46850924  0.98330483     0.12500
C1448       C  0.59040565  0.46315264  0.01138473    -0.23600
C1449       C  0.52509921  0.39236983  0.96726961    -0.06700
H1450       H  0.58415845  0.40175560  0.42035780     0.14000
C1451       C  0.64549405  0.49864128  0.99103090    -0.16900
H1452       H  0.59267914  0.47868847  0.03749698     0.08400
H1453       H  0.46104316  0.46673821  0.10439692     0.06200
H1454       H  0.49904853  0.49794650  0.11469225     0.07400
H1455       H  0.48344086  0.46502137  0.14884599     0.06500
H1456       H  0.61512580  0.38398913  0.03301983     0.01300
H1457       H  0.57794423  0.35252371  0.01998310     0.01800
H1458       H  0.60234822  0.34652958  0.06327645     0.05300
H1459       H  0.52514393  0.38029250  0.93849535     0.04300
H1460       H  0.49924409  0.40887411  0.97081476    -0.01500
H1461       H  0.52453014  0.36936452  0.98766849     0.00000
H1462       H  0.63091494  0.52554256  0.99419295     0.03700
H1463       H  0.66371182  0.50356246  0.46744325     0.05600
H1464       H  0.66014334  0.49267232  0.01768952     0.06500
Zr1465     Zr  0.60730852  0.53817953  0.81265300     2.17500
O1466       O  0.58708714  0.48785869  0.85347803    -0.52000
O1467       O  0.57641526  0.49801483  0.76723039    -0.75200
O1468       O  0.54689682  0.55159802  0.84370598    -0.82000
O1469       O  0.71099829  0.51574277  0.83274521    -0.83700
O1470       O  0.52419206  0.60422691  0.81817410    -0.79400
O1471       O  0.65271827  0.49133131  0.83215322    -0.91000
O1472       O  0.58522667  0.52057018  0.70869798    -0.77000
O1473       O  0.58020798  0.57763060  0.76722482    -0.86500
O1474       O  0.64831087  0.53569420  0.75953554    -0.86100
O1475       O  0.60585595  0.59780569  0.84348752    -0.72900
O1476       O  0.66671147  0.56134762  0.83235073    -0.85000
Zr1477     Zr  0.67701843  0.66142277  0.76363696     2.26400
Zr1478     Zr  0.57913615  0.63739219  0.79703635     2.06300
Zr1479     Zr  0.70780171  0.55975942  0.77970500     2.10000
Zr1480     Zr  0.62151292  0.57616802  0.71482259     1.78800
O1481       O  0.77215346  0.56249965  0.80137283    -0.93800
O1482       O  0.56675927  0.59269312  0.67823523    -0.41600
O1483       O  0.67932227  0.60057136  0.73640938    -0.78300
O1484       O  0.61741142  0.63661395  0.74154391    -0.97000
O1485       O  0.63806852  0.66052988  0.81809248    -0.90300
O1486       O  0.70655785  0.62085070  0.80752980    -0.93100
C1487       C  0.57243437  0.49651953  0.73150390     1.00600
C1488       C  0.68602352  0.49335899  0.84569064     1.13600
C1489       C  0.52099314  0.57585478  0.83925528     1.04400
O1490       O  0.52436564  0.65674063  0.76204138    -0.95300
O1491       O  0.58448631  0.36755026  0.77808848    -0.91000
O1492       O  0.63129334  0.36940442  0.73548799    -0.84200
C1493       C  0.59893592  0.37929417  0.74750659     1.11000
O1494       O  0.65959814  0.58592922  0.92016354    -0.97200
Zr1495     Zr  0.66661719  0.61994891  0.86168738     1.88900
O1496       O  0.68364218  0.37460962  0.81658222    -0.73900
O1497       O  0.55785221  0.67091910  0.85279174    -0.53100
O1498       O  0.63029423  0.65213111  0.90969826    -0.97800
O1499       O  0.72430363  0.60099660  0.89190148    -0.55000
O1500       O  0.70214205  0.67614771  0.86807930    -0.74400
C1501       C  0.69257201  0.37394299  0.85188986     0.97900
O1502       O  0.71791707  0.70931517  0.73852594    -0.63200
O1503       O  0.72343459  0.50316492  0.74571231    -0.58000
O1504       O  0.72737434  0.64542813  0.71740339    -0.94700
O1505       O  0.74370303  0.58515393  0.72628674    -0.93100
O1506       O  0.66165703  0.53800581  0.67521448    -0.93500
O1507       O  0.63452150  0.60522270  0.65464243    -0.92300
C1508       C  0.74685080  0.61631416  0.70887664     1.16800
H1509       H  0.65051195  0.51075790  0.74985885     0.32700
H1510       H  0.60518211  0.64921013  0.72120408     0.43600
H1511       H  0.73132548  0.62953678  0.81352837     0.37100
H1512       H  0.59061784  0.59751457  0.86594222     0.33600
H1513       H  0.56385669  0.57249074  0.65950941     0.25400
H1514       H  0.53572070  0.68482638  0.84431224     0.31300
H1515       H  0.64889583  0.66083332  0.92830733     0.37200
H1516       H  0.64474119  0.52700178  0.65621924     0.31700
H1517       H  0.72018604  0.50942969  0.71891077     0.30600
H1518       H  0.78258679  0.58544813  0.79045349     0.32200
H1519       H  0.74430568  0.61565467  0.87976790     0.31200
H1520       H  0.65393481  0.62400194  0.66026942     0.35200
H1521       H  0.70431107  0.73278240  0.74271076     0.27900
H1522       H  0.56449960  0.47735201  0.84146769     0.32200
H1523       H  0.63572198  0.57230064  0.91753075     0.35000
H1524       H  0.75074083  0.50066893  0.74881523     0.27600
H1525       H  0.73912012  0.71056142  0.75625674     0.40500
H1526       H  0.53260283  0.65743791  0.73548436     0.30600
H1527       H  0.54542637  0.58944768  0.69566286     0.38200
H1528       H  0.72854085  0.57534893  0.88294672     0.30000
H1529       H  0.54763841  0.65191660  0.86991664     0.30100
H1530       H  0.57802443  0.49949625  0.87704241     0.30400
C1531       C  0.54245072  0.41817324  0.66530072     0.85800
C1532       C  0.57330587  0.39546385  0.68509152    -0.54400
C1533       C  0.57496254  0.40123014  0.72304539     0.08700
C1534       C  0.54620965  0.42874692  0.73801959     0.19700
C1535       C  0.50667355  0.40787980  0.68643697    -0.55100
C1536       C  0.50844706  0.41394036  0.72417164     0.08800
C1537       C  0.55187518  0.45812303  0.67723035    -0.54700
C1538       C  0.55422051  0.46360471  0.71514504     0.09400
H1539       H  0.59220585  0.37622793  0.67162534     0.13900
H1540       H  0.54745018  0.43300180  0.76893331    -0.00300
H1541       H  0.48131635  0.39886282  0.67239377     0.14200
H1542       H  0.55900948  0.47945487  0.65706812     0.14000
C1543       C  0.65234406  0.44023279  0.92691227     0.85800
C1544       C  0.68636274  0.43375741  0.95108233    -0.54400
C1545       C  0.71952403  0.43404074  0.93295427     0.08700
C1546       C  0.71500733  0.43769429  0.88856683     0.19700
C1547       C  0.66079608  0.47502241  0.90477445    -0.55100
C1548       C  0.69160560  0.47360969  0.88209686     0.08800
C1549       C  0.65407673  0.40870979  0.89732368    -0.54700
C1550       C  0.68663041  0.40685331  0.87702729     0.09400
H1551       H  0.68458718  0.43293092  0.48125062     0.13900
H1552       H  0.74181543  0.43706870  0.87289638    -0.00300
H1553       H  0.64047575  0.49718142  0.90306995     0.14200
H1554       H  0.63225363  0.38845037  0.89299059     0.14000
Zr1555     Zr  0.89772801  0.50766741  0.56265324     2.17500
O1556       O  0.92297998  0.55876628  0.60001003    -0.52000
O1557       O  0.92585324  0.55026058  0.51741961    -0.75200
O1558       O  0.95479477  0.48926268  0.59681508    -0.82000
O1559       O  0.79257683  0.54303177  0.57975086    -0.83700
O1560       O  0.97202548  0.43236933  0.57562708    -0.79400
O1561       O  0.85358268  0.54736663  0.59516616    -0.91000
O1562       O  0.91898280  0.52747917  0.45839498    -0.77000
O1563       O  0.92328604  0.46637898  0.51747437    -0.86500
O1564       O  0.85749767  0.51333807  0.50930247    -0.86100
O1565       O  0.89317128  0.44807763  0.59244992    -0.72900
O1566       O  0.83588799  0.49037903  0.58019369    -0.85000
Zr1567     Zr  0.81942817  0.39009733  0.51305877     2.26400
Zr1568     Zr  0.91800844  0.40666500  0.54591776     2.06300
Zr1569     Zr  0.79546774  0.49476773  0.52814045     2.10000
Zr1570     Zr  0.88306272  0.47087577  0.46462885     1.78800
O1571       O  0.73107498  0.49521606  0.55011147    -0.93800
O1572       O  0.93794314  0.45066969  0.93521132    -0.41600
O1573       O  0.82264676  0.45104204  0.48554326    -0.78300
O1574       O  0.88071354  0.40989508  0.49027706    -0.97000
O1575       O  0.85725472  0.38997698  0.56795165    -0.90300
O1576       O  0.79145201  0.43400450  0.55590550    -0.93100
C1577       C  0.93016108  0.55232109  0.48164678     1.00600
C1578       C  0.81928782  0.55673656  0.60011450     1.13600
C1579       C  0.97716033  0.46137418  0.59556579     1.04400
O1580       O  0.96510037  0.39018942  0.49927713    -0.95300
O1581       O  0.90251973  0.34254695  0.53454470    -0.91000
O1582       O  0.86218570  0.34345386  0.48696649    -0.84200
C1583       C  0.89269278  0.33204237  0.50192698     1.11000
O1584       O  0.84206280  0.47251263  0.66519856    -0.97200
Zr1585     Zr  0.83002265  0.43336118  0.61053168     1.88900
O1586       O  0.81028424  0.34526315  0.56616848    -0.73900
O1587       O  0.94950885  0.36948319  0.59292237    -0.53100
O1588       O  0.85480568  0.40404143  0.66639822    -0.97800
O1589       O  0.77243113  0.45965893  0.63550822    -0.55000
O1590       O  0.79232163  0.37846662  0.61660665    -0.74400
C1591       C  0.80039924  0.34768812  0.60112712     0.97900
O1592       O  0.77309694  0.34375200  0.99149612    -0.63200
O1593       O  0.78427009  0.55082675  0.49227183    -0.58000
O1594       O  0.77071950  0.40765803  0.46668507    -0.94700
O1595       O  0.75820251  0.46911127  0.47527600    -0.93100
O1596       O  0.84570068  0.50877131  0.92274420    -0.93500
O1597       O  0.86637927  0.44310718  0.90564863    -0.92300
C1598       C  0.75315511  0.43771514  0.45810294     1.16800
H1599       H  0.85695609  0.53831454  0.49986737     0.32700
H1600       H  0.89162777  0.39568166  0.47011055     0.43600
H1601       H  0.76594394  0.42721102  0.56150505     0.37100
H1602       H  0.90738442  0.44671921  0.61534405     0.33600
H1603       H  0.93871194  0.46447075  0.91130222     0.25400
H1604       H  0.92916239  0.35675339  0.60664798     0.31300
H1605       H  0.83253638  0.39733247  0.68147257     0.37200
H1606       H  0.86480687  0.52059331  0.90659285     0.31700
H1607       H  0.75834088  0.54820858  0.48312172     0.30600
H1608       H  0.72224331  0.52061246  0.54506042     0.32200
H1609       H  0.75258354  0.44167167  0.62889323     0.31200
H1610       H  0.86562819  0.41612080  0.91016633     0.35200
H1611       H  0.78402461  0.31929830  0.99709322     0.27900
H1612       H  0.94842176  0.56317307  0.59007831     0.32200
H1613       H  0.85408986  0.49501788  0.65500796     0.35000
H1614       H  0.78303700  0.57098317  0.51122049     0.27600
H1615       H  0.75193972  0.34615967  0.00931448     0.40500
H1616       H  0.98763972  0.38442443  0.51407954     0.30600
H1617       H  0.95845949  0.46154463  0.95027472     0.38200
H1618       H  0.76741183  0.48141870  0.61962283     0.30000
H1619       H  0.96228342  0.34961561  0.57859525     0.30100
H1620       H  0.92682102  0.54871325  0.62549830     0.30400
C1621       C  0.95720991  0.63208564  0.92035896     0.85800
C1622       C  0.92451122  0.65253383  0.93989651    -0.54400
C1623       C  0.92110192  0.64778607  0.47603585     0.08700
C1624       C  0.95159240  0.62179465  0.49069180     0.19700
C1625       C  0.99201919  0.64392094  0.94229608    -0.55100
C1626       C  0.98942963  0.63869162  0.47844362     0.08800
C1627       C  0.94965588  0.59141828  0.93118117    -0.54700
C1628       C  0.94633367  0.58699002  0.46623895     0.09400
H1629       H  0.90286076  0.33657204  0.92513721     0.13900
H1630       H  0.94959868  0.61674054  0.52136765    -0.00300
H1631       H  0.01742275  0.65338187  0.92858995     0.14200
H1632       H  0.94399322  0.56996915  0.91042484     0.14000
C1633       C  0.84801995  0.62050171  0.67918952     0.85800
C1634       C  0.81288994  0.62417500  0.70251933    -0.54400
C1635       C  0.78042526  0.62021577  0.68374104     0.08700
C1636       C  0.78622660  0.61499568  0.63963251     0.19700
C1637       C  0.84394867  0.58462981  0.65726644    -0.55100
C1638       C  0.81347141  0.58153194  0.63416690     0.08800
C1639       C  0.84394672  0.65027362  0.64863403    -0.54700
C1640       C  0.81157824  0.64809174  0.62811312     0.09400
H1641       H  0.81375730  0.62758274  0.73291462     0.13900
H1642       H  0.75992127  0.61253692  0.62345717    -0.00300
H1643       H  0.86659210  0.56473880  0.65735603     0.14200
H1644       H  0.86078592  0.34107606  0.64309552     0.14000
Zr1645     Zr  0.39312319  0.36757842  0.77343053     2.17500
O1646       O  0.42254750  0.31947921  0.73542513    -0.52000
O1647       O  0.41998303  0.65766290  0.81856856    -0.75200
O1648       O  0.45094735  0.38714651  0.74243794    -0.82000
O1649       O  0.29375245  0.65906590  0.75865728    -0.83700
O1650       O  0.47064418  0.44000332  0.77064786    -0.79400
O1651       O  0.35415459  0.65852764  0.73960447    -0.91000
O1652       O  0.41573019  0.34824593  0.87589760    -0.77000
O1653       O  0.41779603  0.40768258  0.81998097    -0.86500
O1654       O  0.35244501  0.36002497  0.82619111    -0.86100
O1655       O  0.38924518  0.42766820  0.74487823    -0.72900
O1656       O  0.33133713  0.38333502  0.75356488    -0.85000
Zr1657     Zr  0.31582728  0.48348234  0.82779652     2.26400
Zr1658     Zr  0.41386914  0.46778884  0.79258684     2.06300
Zr1659     Zr  0.29115302  0.37813546  0.80655454     2.10000
Zr1660     Zr  0.37682529  0.40166543  0.87223736     1.78800
O1661       O  0.22897158  0.37711007  0.77920681    -0.93800
O1662       O  0.43167080  0.42278609  0.90683695    -0.41600
O1663       O  0.31725168  0.42092387  0.85104854    -0.78300
O1664       O  0.37694846  0.46297766  0.84861753    -0.97000
O1665       O  0.35301405  0.48579816  0.77196118    -0.90300
O1666       O  0.28760825  0.44073498  0.78316995    -0.93100
C1667       C  0.42497586  0.65669156  0.85417218     1.00600
C1668       C  0.32071491  0.64615334  0.73768376     1.13600
C1669       C  0.47500220  0.41301082  0.74782165     1.04400
O1670       O  0.46312702  0.48802254  0.83502776    -0.95300
O1671       O  0.40166775  0.53143067  0.80875923    -0.91000
O1672       O  0.36029973  0.52836442  0.85587877    -0.84200
C1673       C  0.39111956  0.54057793  0.84165624     1.11000
O1674       O  0.29090400  0.38888561  0.70699533    -0.97200
Zr1675     Zr  0.32583243  0.44310899  0.72804447     1.88900
O1676       O  0.30248974  0.52972170  0.77801093    -0.73900
O1677       O  0.44160711  0.50126824  0.74024744    -0.53100
O1678       O  0.36684669  0.45684009  0.67488017    -0.97800
O1679       O  0.29833347  0.45385870  0.66628519    -0.55000
O1680       O  0.28026378  0.49209087  0.73417659    -0.74400
C1681       C  0.29017337  0.52426243  0.74454473     0.97900
O1682       O  0.27316994  0.52852269  0.85547761    -0.63200
O1683       O  0.27587251  0.32437583  0.84466693    -0.58000
O1684       O  0.26775603  0.46366335  0.87361260    -0.94700
O1685       O  0.25192031  0.40395233  0.85855598    -0.93100
O1686       O  0.34448847  0.35967546  0.91457712    -0.93500
O1687       O  0.35950682  0.42964282  0.93219425    -0.92300
C1688       C  0.24821987  0.43396486  0.87864368     1.16800
H1689       H  0.35189893  0.33478769  0.83497508     0.32700
H1690       H  0.38869472  0.47576499  0.86936275     0.43600
H1691       H  0.26174567  0.44666365  0.77880564     0.37100
H1692       H  0.40465212  0.42913271  0.72275251     0.33600
H1693       H  0.44218649  0.40041143  0.91859843     0.25400
H1694       H  0.42024354  0.50763566  0.72401694     0.31300
H1695       H  0.37115763  0.43264605  0.66237557     0.37200
H1696       H  0.31832017  0.35955819  0.90577980     0.31700
H1697       H  0.24881948  0.32034408  0.84083057     0.30600
H1698       H  0.21992127  0.35147175  0.78288771     0.32200
H1699       H  0.29907993  0.48085981  0.66205147     0.31200
H1700       H  0.34021515  0.44806758  0.92579426     0.35200
H1701       H  0.28702373  0.55227335  0.85517093     0.27900
H1702       H  0.44692673  0.64717585  0.74967249     0.32200
H1703       H  0.30330529  0.38080985  0.68342746     0.35000
H1704       H  0.27953239  0.63644374  0.82828069     0.27600
H1705       H  0.25325907  0.53160931  0.83655789     0.40500
H1706       H  0.48037180  0.50249008  0.81901092     0.30600
H1707       H  0.45010524  0.42967601  0.88731218     0.38200
H1708       H  0.27144081  0.44822744  0.66934767     0.30000
H1709       H  0.45000818  0.52520047  0.75103274     0.30100
H1710       H  0.42633604  0.33071039  0.71041307     0.30400
C1711       C  0.45253559  0.57940459  0.92166907     0.85800
C1712       C  0.42078055  0.55704977  0.90303866    -0.54400
C1713       C  0.41824270  0.56134365  0.86506575     0.08700
C1714       C  0.44812682  0.58753125  0.84868449     0.19700
C1715       C  0.48833322  0.56901520  0.90020275    -0.55100
C1716       C  0.48642134  0.57336886  0.86220407     0.08800
C1717       C  0.44453812  0.61941349  0.90869750    -0.54700
C1718       C  0.44170991  0.62343430  0.87069875     0.09400
H1719       H  0.40185651  0.53932792  0.91868832     0.13900
H1720       H  0.44638381  0.59073654  0.81773538    -0.00300
H1721       H  0.51440290  0.56307940  0.91432136     0.14200
H1722       H  0.43826373  0.64254144  0.92689276     0.14000
C1723       C  0.34357268  0.56960002  0.66479968     0.85800
C1724       C  0.30962835  0.57662401  0.64040626    -0.54400
C1725       C  0.27787418  0.58559181  0.65861132     0.08700
C1726       C  0.28301603  0.58815408  0.70277031     0.19700
C1727       C  0.34708422  0.60602788  0.68689433    -0.55100
C1728       C  0.31629622  0.61565431  0.70856947     0.08800
C1729       C  0.33154857  0.54149386  0.69380629    -0.54700
C1730       C  0.30058880  0.55032781  0.71410557     0.09400
H1731       H  0.31070335  0.57519447  0.60986208     0.13900
H1732       H  0.25745117  0.59548379  0.71879901    -0.00300
H1733       H  0.37209458  0.62281939  0.68576971     0.14200
H1734       H  0.34775345  0.51695696  0.69937290     0.14000
Zr1735     Zr  0.10988417  0.33967015  0.02786625     2.17500
O1736       O  0.08605503  0.38928089  0.98819972    -0.52000
O1737       O  0.07985692  0.37822116  0.57574915    -0.75200
O1738       O  0.04977541  0.32584123  0.99665968    -0.82000
O1739       O  0.21303625  0.36220364  0.00895215    -0.83700
O1740       O  0.02702525  0.60777641  0.02434264    -0.79400
O1741       O  0.15665560  0.38826414  0.01646408    -0.91000
O1742       O  0.08913152  0.35551329  0.63400770    -0.77000
O1743       O  0.08242915  0.63324232  0.57460883    -0.86500
O1744       O  0.15248609  0.33960817  0.58212396    -0.86100
O1745       O  0.10878049  0.61421411  0.99699938    -0.72900
O1746       O  0.16996972  0.65056496  0.00901761    -0.85000
Zr1747     Zr  0.17757272  0.54808700  0.57552585     2.26400
Zr1748     Zr  0.08002297  0.57380286  0.54464043     2.06300
Zr1749     Zr  0.21067767  0.64951375  0.56126228     2.10000
Zr1750     Zr  0.12372182  0.63340683  0.62660040     1.78800
O1751       O  0.27579958  0.64717772  0.03927250    -0.93800
O1752       O  0.06610343  0.61886910  0.66007428    -0.41600
O1753       O  0.18055751  0.60859724  0.60332155    -0.78300
O1754       O  0.11876084  0.57327644  0.59931270    -0.97000
O1755       O  0.13830185  0.55035806  0.52202025    -0.90300
O1756       O  0.20874079  0.58865545  0.53249299    -0.93100
C1757       C  0.07626003  0.37968539  0.61146338     1.00600
C1758       C  0.18791808  0.38552206  0.99887233     1.13600
C1759       C  0.02433864  0.63565370  0.00275551     1.04400
O1760       O  0.02724927  0.56135077  0.58604881    -0.95300
O1761       O  0.08464353  0.50951646  0.56273776    -0.91000
O1762       O  0.13245455  0.50657339  0.60381357    -0.84200
C1763       C  0.09968061  0.49734760  0.59262403     1.11000
O1764       O  0.16114434  0.63192138  0.92225774    -0.97200
Zr1765     Zr  0.16954466  0.59323934  0.97739770     1.88900
O1766       O  0.18452854  0.50162373  0.52267700    -0.73900
O1767       O  0.05466235  0.54077646  0.98939981    -0.53100
O1768       O  0.13538665  0.56328881  0.92651470    -0.97800
O1769       O  0.22965430  0.61300818  0.95204075    -0.55000
O1770       O  0.19785325  0.53436029  0.96466258    -0.74400
C1771       C  0.19344613  0.50439028  0.98278771     0.97900
O1772       O  0.21911157  0.49996001  0.59810002    -0.63200
O1773       O  0.23273311  0.36875833  0.59620544    -0.58000
O1774       O  0.22558947  0.56320209  0.62353057    -0.94700
O1775       O  0.24415583  0.62316759  0.61577975    -0.93100
O1776       O  0.16420154  0.33692680  0.66745633    -0.93500
O1777       O  0.13551461  0.60241228  0.68589835    -0.92300
C1778       C  0.24549652  0.59174663  0.63302058     1.16800
H1779       H  0.15549215  0.36430582  0.59228198     0.32700
H1780       H  0.10656843  0.56069451  0.61978963     0.43600
H1781       H  0.23447368  0.58132308  0.02462437     0.37100
H1782       H  0.09362989  0.61494990  0.97464998     0.33600
H1783       H  0.06588550  0.63582759  0.68205345     0.25400
H1784       H  0.03109169  0.53002205  0.99905996     0.31300
H1785       H  0.11076349  0.55717868  0.93750919     0.37200
H1786       H  0.18998568  0.32933573  0.66106987     0.31700
H1787       H  0.25951618  0.37108875  0.58972028     0.30600
H1788       H  0.28889531  0.63133899  0.05751391     0.32200
H1789       H  0.24725743  0.59287278  0.95800389     0.31200
H1790       H  0.14655297  0.57831777  0.67862501     0.35200
H1791       H  0.20577307  0.47641559  0.59304144     0.27900
H1792       H  0.06313556  0.39829207  0.00083111     0.32200
H1793       H  0.17597644  0.62009011  0.90198307     0.35000
H1794       H  0.22081622  0.39007612  0.58380418     0.27600
H1795       H  0.24029000  0.49990204  0.58014887     0.40500
H1796       H  0.03775786  0.56126827  0.61170474     0.30600
H1797       H  0.04591268  0.62811048  0.64376335     0.38200
H1798       H  0.23749763  0.63395523  0.96828825     0.30000
H1799       H  0.04667618  0.56012076  0.97164538     0.30100
H1800       H  0.07721633  0.37796182  0.96441058     0.30400
C1801       C  0.04720657  0.45872383  0.67706935     0.85800
C1802       C  0.07449601  0.48350185  0.65527405    -0.54400
C1803       C  0.07622364  0.47588500  0.61781629     0.08700
C1804       C  0.04832007  0.44677121  0.60455779     0.19700
C1805       C  0.00954832  0.46665626  0.65757412    -0.55100
C1806       C  0.01045219  0.46057025  0.61954914     0.08800
C1807       C  0.05689189  0.41887544  0.66547749    -0.54700
C1808       C  0.05823236  0.41271182  0.62778546     0.09400
H1809       H  0.08898357  0.50698665  0.66748942     0.13900
H1810       H  0.04892588  0.44198161  0.57369476    -0.00300
H1811       H  0.98442929  0.47579552  0.67186117     0.14200
H1812       H  0.06488131  0.39801520  0.68573456     0.14000
C1813       C  0.14837676  0.43273944  0.91598517     0.85800
C1814       C  0.18117774  0.43363557  0.88880076    -0.54400
C1815       C  0.21540981  0.43570850  0.90501598     0.08700
C1816       C  0.21344683  0.43792707  0.94964994     0.19700
C1817       C  0.15730168  0.40061695  0.94154384    -0.55100
C1818       C  0.18957477  0.40367890  0.96146702     0.08800
C1819       C  0.15383911  0.46810469  0.93997497    -0.54700
C1820       C  0.18695075  0.47077615  0.95868676     0.09400
H1821       H  0.17760485  0.43197020  0.85850879     0.13900
H1822       H  0.24102991  0.43970577  0.96361283    -0.00300
H1823       H  0.13794222  0.37796841  0.94580766     0.14200
H1824       H  0.13429593  0.49067269  0.94118938     0.14000
C1825       C  0.08690310  0.45344194  0.77663784    -0.23100
C1826       C  0.05504695  0.44456987  0.79722593     0.08800
C1827       C  0.01985852  0.44623722  0.78028540     0.09200
C1828       C  0.01757226  0.45527967  0.74196305    -0.18000
C1829       C  0.04995054  0.46178891  0.71993344    -0.28500
C1830       C  0.08543894  0.46042688  0.73827328     0.17600
C1831       C  0.06154274  0.43111551  0.83557833     0.11500
C1832       C  0.98521176  0.43645776  0.80210181    -0.12800
H1833       H  0.99045900  0.45403369  0.72892926     0.11800
C1834       C  0.12278367  0.46324491  0.71836401    -0.23700
H1835       H  0.11376940  0.45238928  0.79055782     0.07500
C1836       C  0.08274955  0.39873902  0.84037663     0.03800
C1837       C  0.10843038  0.39760070  0.86984807    -0.20900
C1838       C  0.11099292  0.42715870  0.89573662    -0.13200
C1839       C  0.08031172  0.45189289  0.89757252     0.12500
C1840       C  0.05811638  0.45601090  0.86557661    -0.23600
C1841       C  0.08023413  0.36712805  0.81266329    -0.06700
H1842       H  0.12875837  0.37549421  0.87053714     0.14000
C1843       C  0.06744414  0.47072906  0.93301167    -0.16900
H1844       H  0.03899326  0.47908279  0.86368864     0.08400
H1845       H  0.14632956  0.45558422  0.73692145     0.06200
H1846       H  0.12844979  0.49213054  0.70988574     0.07400
H1847       H  0.12416135  0.44402469  0.69399104     0.06500
H1848       H  0.98216997  0.45544395  0.82655686     0.01300
H1849       H  0.98718870  0.40755792  0.81228791     0.01800
H1850       H  0.95977623  0.43879261  0.78460530     0.05300
H1851       H  0.09828036  0.34368592  0.82098275     0.04300
H1852       H  0.08891797  0.37618612  0.78424158    -0.01500
H1853       H  0.05096710  0.35694920  0.81149257     0.00000
H1854       H  0.07025711  0.50111173  0.93002157     0.03700
H1855       H  0.08257606  0.46083881  0.95808332     0.05600
H1856       H  0.03756010  0.46401959  0.93795378     0.06500
C1857       C  0.45427841  0.53067671  0.01821755    -0.23100
C1858       C  0.44151471  0.55896087  0.04201007     0.08800
C1859       C  0.43952841  0.59532935  0.02809993     0.09200
C1860       C  0.44787555  0.60187989  0.99030097    -0.18000
C1861       C  0.45464750  0.57270194  0.96449573    -0.28500
C1862       C  0.46026512  0.53665935  0.97963122     0.17600
C1863       C  0.42200232  0.54852697  0.57681891     0.11500
C1864       C  0.42580477  0.62718180  0.05214667    -0.12800
H1865       H  0.44708306  0.63019687  0.98163032     0.11800
C1866       C  0.47179269  0.50379102  0.95581194    -0.23700
H1867       H  0.45295739  0.50131952  0.52712264     0.07500
C1868       C  0.38787979  0.52887959  0.57831352     0.03800
C1869       C  0.36677758  0.53026345  0.61133702    -0.20900
C1870       C  0.37612203  0.55507178  0.64061519    -0.13200
C1871       C  0.41361267  0.56745655  0.64232725     0.12500
C1872       C  0.43607166  0.56443240  0.60999726    -0.23600
C1873       C  0.37144710  0.50976439  0.54430520    -0.06700
H1874       H  0.33998750  0.51625477  0.61194988     0.14000
C1875       C  0.43168665  0.58105673  0.67781865    -0.16900
H1876       H  0.46390939  0.57625366  0.61006068     0.08400
H1877       H  0.45141095  0.49823444  0.93318726     0.06200
H1878       H  0.47363868  0.47813537  0.97267760     0.07400
H1879       H  0.49982383  0.50845729  0.94353617     0.06500
H1880       H  0.44525886  0.63229165  0.07576848     0.01300
H1881       H  0.39753671  0.62081940  0.06330206     0.01800
H1882       H  0.42383889  0.65331182  0.03605925     0.05300
H1883       H  0.34339196  0.49798177  0.55028100     0.04300
H1884       H  0.38956779  0.48658000  0.53517462    -0.01500
H1885       H  0.36840272  0.52981629  0.52104449     0.00000
H1886       H  0.41414351  0.24817697  0.70240897     0.03700
H1887       H  0.44031167  0.61032460  0.67441605     0.05600
H1888       H  0.45697462  0.56431731  0.68335541     0.06500
C1889       C  0.97852419  0.61439835  0.81543287    -0.23100
C1890       C  0.95300801  0.63846516  0.79872692     0.08800
C1891       C  0.93512633  0.66548369  0.82117831     0.09200
C1892       C  0.94118645  0.66591599  0.85993213    -0.18000
C1893       C  0.96146865  0.63775170  0.87776374    -0.28500
C1894       C  0.98355425  0.61398365  0.85457990     0.17600
C1895       C  0.93688413  0.62820073  0.76186955     0.11500
C1896       C  0.90582737  0.36382740  0.80670888    -0.12800
H1897       H  0.92833464  0.68779229  0.87603088     0.11800
C1898       C  0.01165157  0.58682552  0.86954963    -0.23700
H1899       H  0.99255907  0.59391917  0.79807729     0.07500
C1900       C  0.93827732  0.65140789  0.73034383     0.03800
C1901       C  0.91074537  0.64751562  0.70237943    -0.20900
C1902       C  0.88240249  0.62019627  0.70499028    -0.13200
C1903       C  0.88549824  0.59338177  0.73426795     0.12500
C1904       C  0.91270001  0.59794824  0.76184922    -0.23600
C1905       C  0.96579840  0.35044541  0.72424351    -0.06700
H1906       H  0.91136327  0.66665988  0.67934580     0.14000
C1907       C  0.85979461  0.56045856  0.73989852    -0.16900
H1908       H  0.91277419  0.57938182  0.78568265     0.08400
H1909       H  0.03917895  0.59206021  0.85616042     0.06200
H1910       H  0.00267913  0.55814324  0.86258305     0.07400
H1911       H  0.01592159  0.58882056  0.90019850     0.06500
H1912       H  0.88374920  0.67543449  0.79138444     0.01300
H1913       H  0.91840505  0.38226844  0.78550079     0.01800
H1914       H  0.89438788  0.38174242  0.82944103     0.05300
H1915       H  0.96287748  0.36572078  0.69746114     0.04300
H1916       H  0.99640530  0.66498341  0.72494036    -0.01500
H1917       H  0.96615270  0.37091219  0.74747727     0.00000
H1918       H  0.87622865  0.53458313  0.73714811     0.03700
H1919       H  0.83605605  0.55824265  0.72051471     0.05600
H1920       H  0.84764296  0.56163869  0.76860730     0.06500
C1921       C  0.52132826  0.44169153  0.56215937    -0.23100
C1922       C  0.54777959  0.41979240  0.54370833     0.08800
C1923       C  0.56649258  0.39197652  0.56376020     0.09200
C1924       C  0.56033661  0.38870984  0.60240887    -0.18000
C1925       C  0.53855768  0.41461943  0.62243279    -0.28500
C1926       C  0.51610920  0.43948852  0.60116839     0.17600
C1927       C  0.56331589  0.43278775  0.50768160     0.11500
C1928       C  0.59594585  0.36804993  0.54536818    -0.11600
H1929       H  0.57462269  0.36683324  0.61667623     0.11800
C1930       C  0.48795001  0.46594498  0.61800764    -0.23700
H1931       H  0.50690537  0.46284122  0.54646715     0.07500
C1932       C  0.56017444  0.41246429  0.47406827     0.03800
C1933       C  0.58678002  0.41812443  0.44559009    -0.20900
C1934       C  0.61729725  0.44421812  0.95141563    -0.13200
C1935       C  0.61499828  0.46826150  0.48173672     0.12500
C1936       C  0.58822043  0.46248235  0.50968717    -0.23600
C1937       C  0.52909633  0.38475281  0.46856266    -0.06700
H1938       H  0.58213509  0.40614374  0.91967106     0.14000
C1939       C  0.64187815  0.49989546  0.48892106    -0.16900
H1940       H  0.58915765  0.47921857  0.53511370     0.08400
H1941       H  0.46023923  0.46079161  0.60508577     0.06200
H1942       H  0.49647365  0.49487383  0.61190130     0.07400
H1943       H  0.48432524  0.46356760  0.64866072     0.06500
H1944       H  0.61844592  0.38569041  0.53349868     0.01300
H1945       H  0.58357774  0.35099279  0.52262221     0.01800
H1946       H  0.60900248  0.34887483  0.56565507     0.05300
H1947       H  0.53075102  0.37104088  0.44058029     0.04300
H1948       H  0.50185189  0.39913583  0.47066788    -0.01500
H1949       H  0.53002036  0.36298518  0.49027599     0.00000
H1950       H  0.62603797  0.52620744  0.49067958     0.03700
H1951       H  0.66692050  0.50225431  0.96910876     0.05600
H1952       H  0.65621161  0.49555383  0.51611842     0.06500
Zr1953     Zr  0.60491552  0.87139370  0.31061359     2.17500
O1954       O  0.58067012  0.82062068  0.34864981    -0.52000
O1955       O  0.57596891  0.83139391  0.26379271    -0.75200
O1956       O  0.54427776  0.88506779  0.34106931    -0.82000
O1957       O  0.70808988  0.84618359  0.33252613    -0.83700
O1958       O  0.52271885  0.93951957  0.31857434    -0.79400
O1959       O  0.64837257  0.82514060  0.33425935    -0.91000
O1960       O  0.58397797  0.85473696  0.20548444    -0.77000
O1961       O  0.57890453  0.91095591  0.26490593    -0.86500
O1962       O  0.64746912  0.86859316  0.25873813    -0.86100
O1963       O  0.60365172  0.93086050  0.34169250    -0.72900
O1964       O  0.66427244  0.89343723  0.33182888    -0.85000
Zr1965     Zr  0.67646171  0.99447251  0.26431370     2.26400
Zr1966     Zr  0.57772870  0.97058659  0.29498110     2.06300
Zr1967     Zr  0.70676597  0.89210338  0.28040815     2.10000
Zr1968     Zr  0.62168251  0.90945832  0.21364405     1.78800
O1969       O  0.76960489  0.89944946  0.30525485    -0.93800
O1970       O  0.56851216  0.93101340  0.17748784    -0.41600
O1971       O  0.67875006  0.93343122  0.23741345    -0.78300
O1972       O  0.61747546  0.96986262  0.24058490    -0.97000
O1973       O  0.63637364  0.99309690  0.31788400    -0.90300
O1974       O  0.70538419  0.95330115  0.30820419    -0.93100
C1975       C  0.57156635  0.83026339  0.22811526     1.00600
C1976       C  0.68226203  0.82514724  0.34633418     1.13600
C1977       C  0.51897795  0.91014086  0.33807190     1.04400
O1978       O  0.52644839  0.98694025  0.25361522    -0.95300
O1979       O  0.58175572  0.70081160  0.27568290    -0.91000
O1980       O  0.62997819  0.70325685  0.23455779    -0.84200
C1981       C  0.59717250  0.71289326  0.24573439     1.11000
O1982       O  0.65427622  0.91695381  0.41883351    -0.97200
Zr1983     Zr  0.66436336  0.95197763  0.36142698     1.88900
O1984       O  0.68320480  0.70710055  0.31692201    -0.73900
O1985       O  0.54958855  0.00354436  0.34786355    -0.53100
O1986       O  0.62966552  0.98477313  0.41012829    -0.97800
O1987       O  0.72126186  0.93071851  0.39167861    -0.55000
O1988       O  0.69987267  0.00813494  0.36943536    -0.74400
C1989       C  0.69361095  0.70549685  0.35173450     0.97900
O1990       O  0.71672534  0.04293290  0.23923305    -0.63200
O1991       O  0.72778331  0.83635525  0.24774159    -0.58000
O1992       O  0.72700247  0.97833773  0.21855603    -0.94700
O1993       O  0.74176659  0.91743649  0.22598604    -0.93100
O1994       O  0.66022550  0.87067003  0.17304667    -0.93500
O1995       O  0.64094579  0.93724172  0.15452988    -0.92300
C1996       C  0.74562477  0.94893381  0.20922460     1.16800
H1997       H  0.64983571  0.84366693  0.24905683     0.32700
H1998       H  0.60595153  0.98261591  0.21998744     0.43600
H1999       H  0.73001908  0.96194866  0.31469176     0.37100
H2000       H  0.58804174  0.93075032  0.36387894     0.33600
H2001       H  0.56540294  0.91246628  0.15712242     0.25400
H2002       H  0.57087432  0.01483154  0.36145081     0.31300
H2003       H  0.64869491  0.99235263  0.42879246     0.37200
H2004       H  0.68275794  0.86536324  0.18803543     0.31700
H2005       H  0.74506931  0.84512869  0.22794491     0.30600
H2006       H  0.77656693  0.87457319  0.31425159     0.32200
H2007       H  0.74186189  0.94454774  0.37955738     0.31200
H2008       H  0.64482624  0.96375660  0.16060977     0.35200
H2009       H  0.70318758  0.06629754  0.24421937     0.27900
H2010       H  0.55654166  0.81350021  0.33716272     0.32200
H2011       H  0.63197017  0.90150078  0.41371104     0.35000
H2012       H  0.74411134  0.82376616  0.26596964     0.27600
H2013       H  0.73834270  0.04388169  0.25646279     0.40500
H2014       H  0.53799938  0.99098981  0.22869045     0.30600
H2015       H  0.54667511  0.92710865  0.19411906     0.38200
H2016       H  0.72448022  0.90488662  0.38282909     0.30000
H2017       H  0.53639348  0.02472835  0.33656863     0.30100
H2018       H  0.57401981  0.83144601  0.37340042     0.30400
C2019       C  0.54068751  0.75096885  0.16307197     0.85800
C2020       C  0.57157194  0.72841565  0.18303407    -0.54400
C2021       C  0.57355100  0.73484883  0.22087313     0.08700
C2022       C  0.54496886  0.76275566  0.23552126     0.19700
C2023       C  0.50493354  0.74129433  0.18464190    -0.55100
C2024       C  0.50696829  0.74794990  0.22224852     0.08800
C2025       C  0.55056189  0.79112368  0.17421661    -0.54700
C2026       C  0.55316035  0.79722326  0.21201704     0.09400
H2027       H  0.59023138  0.70884172  0.16969815     0.13900
H2028       H  0.54637263  0.76745073  0.26636173    -0.00300
H2029       H  0.47940219  0.73225590  0.17093322     0.14200
H2030       H  0.55783039  0.81206074  0.15368695     0.14000
C2031       C  0.65016031  0.76891242  0.42738366     0.85800
C2032       C  0.68442224  0.76537739  0.45194223    -0.54400
C2033       C  0.71769515  0.76697453  0.43396830     0.08700
C2034       C  0.71325157  0.76977919  0.38942446     0.19700
C2035       C  0.65637903  0.80360818  0.40448975    -0.55100
C2036       C  0.68762167  0.80412208  0.38225034     0.08800
C2037       C  0.65414206  0.73730149  0.39824196    -0.54700
C2038       C  0.68683308  0.73714924  0.37823870     0.09400
H2039       H  0.68574215  0.76414349  0.98085113     0.13900
H2040       H  0.74009441  0.77047967  0.37382128    -0.00300
H2041       H  0.63461343  0.82434377  0.40247653     0.14200
H2042       H  0.63312847  0.71659503  0.39277902     0.14000
Zr2043     Zr  0.89718223  0.84156554  0.06362717     2.17500
O2044       O  0.92333785  0.89291118  0.10006146    -0.52000
O2045       O  0.92543352  0.88349705  0.01807042    -0.75200
O2046       O  0.95419553  0.82314663  0.09826066    -0.82000
O2047       O  0.79223358  0.87564303  0.08076062    -0.83700
O2048       O  0.97257408  0.76745769  0.07498141    -0.79400
O2049       O  0.85341433  0.88226026  0.09508391    -0.91000
O2050       O  0.91754379  0.86115784  0.95900178    -0.77000
O2051       O  0.92261797  0.80054868  0.01827247    -0.86500
O2052       O  0.85667608  0.84690106  0.01043325    -0.86100
O2053       O  0.89295550  0.78216140  0.09354060    -0.72900
O2054       O  0.83539301  0.82369400  0.08125569    -0.85000
Zr2055     Zr  0.82021562  0.72305160  0.01346846     2.26400
Zr2056     Zr  0.91818373  0.74099727  0.04708215     2.06300
Zr2057     Zr  0.79490183  0.82749206  0.02906835     2.10000
Zr2058     Zr  0.88214076  0.80465025  0.96556434     1.78800
O2059       O  0.73052780  0.82669762  0.05109857    -0.93800
O2060       O  0.93442647  0.78440788  0.43185742    -0.41600
O2061       O  0.82239168  0.78407959  0.98663268    -0.78300
O2062       O  0.88130360  0.74379373  0.99122129    -0.97000
O2063       O  0.85763045  0.72336353  0.06851868    -0.90300
O2064       O  0.79168548  0.76655147  0.05638793    -0.93100
C2065       C  0.92923541  0.88566840  0.98228206     1.00600
C2066       C  0.81888617  0.89049693  0.10040005     1.13600
C2067       C  0.97714575  0.79575057  0.09602759     1.04400
O2068       O  0.96785693  0.72443380  0.00331837    -0.95300
O2069       O  0.90508678  0.67674523  0.03360201    -0.91000
O2070       O  0.86375135  0.67758362  0.98665335    -0.84200
C2071       C  0.89457211  0.66636059  0.00112423     1.11000
O2072       O  0.83759085  0.80572768  0.16650485    -0.97200
Zr2073     Zr  0.83001772  0.76634589  0.11120735     1.88900
O2074       O  0.81244777  0.67803037  0.06646941    -0.73900
O2075       O  0.94601182  0.70570695  0.09778860    -0.53100
O2076       O  0.85973466  0.73761366  0.16490655    -0.97800
O2077       O  0.77149420  0.78940858  0.13730854    -0.55000
O2078       O  0.79339034  0.71076557  0.11683457    -0.74400
C2079       C  0.80220803  0.68021907  0.10132271     0.97900
O2080       O  0.77334350  0.67569803  0.49288845    -0.63200
O2081       O  0.78208892  0.88309848  0.99309094    -0.58000
O2082       O  0.77177649  0.74026666  0.96659022    -0.94700
O2083       O  0.75884040  0.80165672  0.97520792    -0.93100
O2084       O  0.83991266  0.84253860  0.42517832    -0.93500
O2085       O  0.86525908  0.78042454  0.40328460    -0.92300
C2086       C  0.75413367  0.77026158  0.95785333     1.16800
H2087       H  0.85586261  0.87189783  0.00105237     0.32700
H2088       H  0.89300003  0.73004406  0.97119790     0.43600
H2089       H  0.76625612  0.75938504  0.06179582     0.37100
H2090       H  0.90710708  0.78088186  0.11646853     0.33600
H2091       H  0.93736391  0.80202298  0.41087391     0.25400
H2092       H  0.92567724  0.68952772  0.10705730     0.31300
H2093       H  0.83880968  0.72965376  0.18123535     0.37200
H2094       H  0.84523542  0.86846282  0.43264536     0.31700
H2095       H  0.75484532  0.88237269  0.98865690     0.30600
H2096       H  0.72155838  0.85225961  0.04725120     0.32200
H2097       H  0.75168447  0.77353417  0.12641562     0.31200
H2098       H  0.85404112  0.75577680  0.40781888     0.35200
H2099       H  0.78675454  0.65184138  0.49411369     0.27900
H2100       H  0.94899386  0.89647951  0.09032820     0.32200
H2101       H  0.85722942  0.82373440  0.15939776     0.35000
H2102       H  0.78572154  0.90386018  0.01102533     0.27600
H2103       H  0.75479217  0.67447898  0.51353334     0.40500
H2104       H  0.98666456  0.71183675  0.01893491     0.30600
H2105       H  0.95546928  0.79029662  0.44884219     0.38200
H2106       H  0.76792354  0.81382722  0.12545335     0.30000
H2107       H  0.96375865  0.68864641  0.08526407     0.30100
H2108       H  0.92664256  0.88340038  0.12584287     0.30400
C2109       C  0.95595106  0.96596817  0.42019613     0.85800
C2110       C  0.92351063  0.98646205  0.44008387    -0.54400
C2111       C  0.92146020  0.98123270  0.97663929     0.08700
C2112       C  0.95140048  0.95473968  0.99131137     0.19700
C2113       C  0.99086619  0.97716466  0.44242893    -0.55100
C2114       C  0.98940761  0.97094500  0.97895016     0.08800
C2115       C  0.94798706  0.92520046  0.43042663    -0.54700
C2116       C  0.94553001  0.92006177  0.96687584     0.09400
H2117       H  0.90321735  0.67192360  0.42520506     0.13900
H2118       H  0.94935081  0.94974659  0.02199641    -0.00300
H2119       H  0.01637534  0.98663415  0.42894063     0.14200
H2120       H  0.94217400  0.90406491  0.40937865     0.14000
C2121       C  0.84688672  0.95358373  0.18015808     0.85800
C2122       C  0.81158937  0.95699322  0.20327348    -0.54400
C2123       C  0.77929148  0.95292152  0.18423599     0.08700
C2124       C  0.78543474  0.94838145  0.14006302     0.19700
C2125       C  0.84301449  0.91790439  0.15791752    -0.55100
C2126       C  0.81278073  0.91505539  0.13450519     0.08800
C2127       C  0.84288910  0.98386797  0.15016511    -0.54700
C2128       C  0.81081654  0.98176552  0.12919985     0.09400
H2129       H  0.81219940  0.96033712  0.23367913     0.13900
H2130       H  0.75928535  0.94602361  0.12361983    -0.00300
H2131       H  0.86557770  0.89789865  0.15808428     0.14200
H2132       H  0.86270375  0.67333011  0.14318310     0.14000
Zr2133     Zr  0.39178997  0.70243700  0.27416481     2.17500
O2134       O  0.41940468  0.65381049  0.23553687    -0.52000
O2135       O  0.41970550  0.99303672  0.31858233    -0.75200
O2136       O  0.45064957  0.72059914  0.24380740    -0.82000
O2137       O  0.29179903  0.99437755  0.25958831    -0.83700
O2138       O  0.46815798  0.77706536  0.26593150    -0.79400
O2139       O  0.35252325  0.99238370  0.24188274    -0.91000
O2140       O  0.41447151  0.68207619  0.37651089    -0.77000
O2141       O  0.41655885  0.74178408  0.32139719    -0.86500
O2142       O  0.35047846  0.69429108  0.32637688    -0.86100
O2143       O  0.38879105  0.76295383  0.24675067    -0.72900
O2144       O  0.33034301  0.71901838  0.25347163    -0.85000
Zr2145     Zr  0.31461010  0.81781798  0.32981267     2.26400
Zr2146     Zr  0.41322283  0.80241669  0.29503984     2.06300
Zr2147     Zr  0.28953377  0.71323904  0.30606674     2.10000
Zr2148     Zr  0.37498866  0.73522691  0.37320059     1.78800
O2149       O  0.22967694  0.71462510  0.27386341    -0.93800
O2150       O  0.42935140  0.75518899  0.40913595    -0.41600
O2151       O  0.31562041  0.75483271  0.35177106    -0.78300
O2152       O  0.37566408  0.79702287  0.35067122    -0.97000
O2153       O  0.35256323  0.82114631  0.27442959    -0.90300
O2154       O  0.28683989  0.77614181  0.28383511    -0.93100
C2155       C  0.42489327  0.99196870  0.35419391     1.00600
C2156       C  0.31884854  0.98073104  0.23932558     1.13600
C2157       C  0.47354701  0.74796711  0.24613825     1.04400
O2158       O  0.46142592  0.81751616  0.34074310    -0.95300
O2159       O  0.39905240  0.86595254  0.30995468    -0.91000
O2160       O  0.35886185  0.86273003  0.35785331    -0.84200
C2161       C  0.38916834  0.87525993  0.34296901     1.11000
O2162       O  0.29276911  0.72757637  0.20068306    -0.97200
Zr2163     Zr  0.32600783  0.77964212  0.22906803     1.88900
O2164       O  0.30030097  0.86506589  0.28130921    -0.73900
O2165       O  0.44485794  0.84021814  0.24823722    -0.53100
O2166       O  0.37034435  0.79603412  0.17928279    -0.97800
O2167       O  0.30194805  0.79957725  0.16822517    -0.55000
O2168       O  0.27907674  0.82703614  0.23755272    -0.74400
C2169       C  0.28847059  0.85937778  0.24772073     0.97900
O2170       O  0.27297572  0.86081074  0.36222664    -0.63200
O2171       O  0.26800608  0.66024590  0.34225933    -0.58000
O2172       O  0.26577368  0.79762101  0.37448492    -0.94700
O2173       O  0.24990738  0.73823613  0.35834388    -0.93100
O2174       O  0.34140818  0.69383488  0.41519420    -0.93500
O2175       O  0.35788730  0.76335007  0.43316905    -0.92300
C2176       C  0.24615970  0.76792190  0.37893824     1.16800
H2177       H  0.34963470  0.66893388  0.33477911     0.32700
H2178       H  0.38707778  0.80975846  0.37153713     0.43600
H2179       H  0.26086820  0.78191864  0.27978012     0.37100
H2180       H  0.40464299  0.76414817  0.22497375     0.33600
H2181       H  0.43284735  0.73584356  0.42834007     0.25400
H2182       H  0.42463475  0.84851619  0.23146285     0.31300
H2183       H  0.37467916  0.77282137  0.16498327     0.37200
H2184       H  0.31729046  0.68910991  0.40254150     0.31700
H2185       H  0.24054057  0.66033688  0.33936047     0.30600
H2186       H  0.21190443  0.72480994  0.29257399     0.32200
H2187       H  0.27444094  0.79891255  0.17075516     0.31200
H2188       H  0.33820106  0.78139819  0.42687891     0.35200
H2189       H  0.28901952  0.88162346  0.37058277     0.27900
H2190       H  0.44511275  0.98406351  0.24484298     0.32200
H2191       H  0.30970239  0.71804207  0.18083265     0.35000
H2192       H  0.24973620  0.98774877  0.34180306     0.27600
H2193       H  0.25712541  0.87140774  0.34233385     0.40500
H2194       H  0.48308337  0.82555333  0.32546772     0.30600
H2195       H  0.45077585  0.75207597  0.39178481     0.38200
H2196       H  0.30751133  0.77948673  0.15001341     0.30000
H2197       H  0.45311654  0.86287694  0.26167426     0.30100
H2198       H  0.42436914  0.66541398  0.21090424     0.30400
C2199       C  0.45217790  0.91414818  0.42139470     0.85800
C2200       C  0.41957799  0.89248051  0.40356011    -0.54400
C2201       C  0.41646114  0.89652547  0.36565150     0.08700
C2202       C  0.44641626  0.92223181  0.34854155     0.19700
C2203       C  0.48724654  0.90293676  0.39919244    -0.55100
C2204       C  0.48466698  0.90734801  0.36125986     0.08800
C2205       C  0.44478527  0.95434975  0.40857268    -0.54700
C2206       C  0.44126563  0.95838862  0.37058835     0.09400
H2207       H  0.40074281  0.87504921  0.41965299     0.13900
H2208       H  0.44408657  0.92532184  0.31762044    -0.00300
H2209       H  0.51351050  0.89665632  0.41278817     0.14200
H2210       H  0.43940808  0.97756749  0.42698933     0.14000
C2211       C  0.34174602  0.90371972  0.16718064     0.85800
C2212       C  0.30763975  0.90965434  0.14274179    -0.54400
C2213       C  0.27584392  0.91896222  0.16076212     0.08700
C2214       C  0.28106103  0.92257186  0.20490242     0.19700
C2215       C  0.34488440  0.94068097  0.18841146    -0.55100
C2216       C  0.31417262  0.95036668  0.21012758     0.08800
C2217       C  0.33006716  0.87625262  0.19698852    -0.54700
C2218       C  0.29901429  0.88520020  0.21710442     0.09400
H2219       H  0.30872345  0.90752187  0.11224199     0.13900
H2220       H  0.25546942  0.93005399  0.22082378    -0.00300
H2221       H  0.36975985  0.95762860  0.18695413     0.14200
H2222       H  0.34667215  0.85233350  0.20350282     0.14000
Zr2223     Zr  0.11016950  0.67233353  0.52909194     2.17500
O2224       O  0.08790909  0.72395406  0.49126110    -0.52000
O2225       O  0.07924732  0.71148440  0.07545402    -0.75200
O2226       O  0.05022314  0.65978504  0.49705675    -0.82000
O2227       O  0.21334940  0.69405055  0.50875707    -0.83700
O2228       O  0.02597465  0.93836899  0.52283317    -0.79400
O2229       O  0.15737763  0.72045494  0.51743319    -0.91000
O2230       O  0.08687713  0.68743077  0.13335256    -0.77000
O2231       O  0.08078232  0.96556082  0.07372747    -0.86500
O2232       O  0.15187681  0.67366372  0.08238153    -0.86100
O2233       O  0.10722761  0.94595995  0.49835786    -0.72900
O2234       O  0.16868476  0.98189127  0.50928868    -0.85000
Zr2235     Zr  0.17722980  0.88171376  0.07516797     2.26400
Zr2236     Zr  0.07991509  0.90619390  0.04333921     2.06300
Zr2237     Zr  0.20947043  0.98391362  0.06347390     2.10000
Zr2238     Zr  0.12105056  0.96571695  0.12646255     1.78800
O2239       O  0.27445817  0.97678396  0.53909190    -0.93800
O2240       O  0.06329625  0.95134072  0.15977833    -0.41600
O2241       O  0.17891720  0.94196118  0.10414634    -0.78300
O2242       O  0.11767906  0.90583827  0.09838460    -0.97000
O2243       O  0.13886949  0.88413153  0.02096661    -0.90300
O2244       O  0.20860163  0.92351757  0.03370385    -0.93100
C2245       C  0.07474059  0.71214625  0.11102286     1.00600
C2246       C  0.18819069  0.71741892  0.49912542     1.13600
C2247       C  0.02303016  0.96739876  0.50282750     1.04400
O2248       O  0.02761369  0.88928159  0.08366006    -0.95300
O2249       O  0.08400876  0.84194003  0.06221357    -0.91000
O2250       O  0.13243471  0.83923383  0.10268322    -0.84200
C2251       C  0.09965325  0.82964189  0.09179860     1.11000
O2252       O  0.16005264  0.96236927  0.42262706    -0.97200
Zr2253     Zr  0.16750069  0.92416745  0.47824866     1.88900
O2254       O  0.18642158  0.83666505  0.02117307    -0.73900
O2255       O  0.05137496  0.87057934  0.49409519    -0.53100
O2256       O  0.13037303  0.89151238  0.43112167    -0.97800
O2257       O  0.22724826  0.94038216  0.44964071    -0.55000
O2258       O  0.19674772  0.86557703  0.46671784    -0.74400
C2259       C  0.19171610  0.83573543  0.48482542     0.97900
O2260       O  0.21801431  0.83231830  0.09633972    -0.63200
O2261       O  0.22951454  0.70500402  0.09728952    -0.58000
O2262       O  0.22463966  0.89655449  0.12398383    -0.94700
O2263       O  0.24180004  0.95719575  0.11864955    -0.93100
O2264       O  0.15746481  0.67299014  0.16947952    -0.93500
O2265       O  0.13444865  0.93041499  0.18277229    -0.92300
C2266       C  0.24363553  0.92526819  0.13486477     1.16800
H2267       H  0.15437293  0.69827939  0.09289385     0.32700
H2268       H  0.10534924  0.89291085  0.11849856     0.43600
H2269       H  0.23286113  0.91303210  0.52500480     0.37100
H2270       H  0.09171674  0.94670562  0.47628958     0.33600
H2271       H  0.06327447  0.96814875  0.18187859     0.25400
H2272       H  0.02565172  0.86528977  0.50280857     0.31300
H2273       H  0.10865007  0.90748866  0.42596812     0.37200
H2274       H  0.13827213  0.68179242  0.18749532     0.31700
H2275       H  0.22965408  0.69686811  0.12378113     0.30600
H2276       H  0.28687441  0.95987508  0.55682053     0.32200
H2277       H  0.24526090  0.92186173  0.45881736     0.31200
H2278       H  0.15558287  0.91426151  0.17552911     0.35200
H2279       H  0.20566341  0.80909082  0.08812499     0.27900
H2280       H  0.06589108  0.73384595  0.50480802     0.32200
H2281       H  0.16981380  0.94730468  0.40144770     0.35000
H2282       H  0.25616016  0.70888014  0.09097251     0.27600
H2283       H  0.24046613  0.83422426  0.08015116     0.40500
H2284       H  0.03372711  0.89998407  0.10854855     0.30600
H2285       H  0.04318493  0.96090984  0.14356672     0.38200
H2286       H  0.23472895  0.96378006  0.46219378     0.30000
H2287       H  0.04835524  0.88824718  0.47321758     0.30100
H2288       H  0.07772167  0.71360534  0.46758970     0.30400
C2289       C  0.04782466  0.79111718  0.17699025     0.85800
C2290       C  0.07575604  0.81514158  0.15498690    -0.54400
C2291       C  0.07675219  0.80782905  0.11738551     0.08700
C2292       C  0.04787142  0.77955718  0.10443955     0.19700
C2293       C  0.01024933  0.80037677  0.15788443    -0.55100
C2294       C  0.01059017  0.79445850  0.11982411     0.08800
C2295       C  0.05614234  0.75110707  0.16516220    -0.54700
C2296       C  0.05692191  0.74510485  0.12747799     0.09400
H2297       H  0.09078544  0.83834124  0.16705814     0.13900
H2298       H  0.04800525  0.77483595  0.07356177    -0.00300
H2299       H  0.98556066  0.81005820  0.17258349     0.14200
H2300       H  0.06392476  0.72998930  0.18523809     0.14000
C2301       C  0.14672317  0.76452137  0.41754548     0.85800
C2302       C  0.17915576  0.76703798  0.38994074    -0.54400
C2303       C  0.21355107  0.76922943  0.40565414     0.08700
C2304       C  0.21217340  0.77036250  0.45028604     0.19700
C2305       C  0.15683528  0.73195758  0.44215378    -0.55100
C2306       C  0.18934127  0.73535598  0.46165831     0.08800
C2307       C  0.15156516  0.79927753  0.44258014    -0.54700
C2308       C  0.18501796  0.80226755  0.46069189     0.09400
H2309       H  0.17523139  0.76604432  0.35966710     0.13900
H2310       H  0.23995795  0.77241308  0.46380771    -0.00300
H2311       H  0.13779278  0.70905796  0.44660767     0.14200
H2312       H  0.13145693  0.82124717  0.44494164     0.14000
C2313       C  0.08716328  0.78531866  0.27691725    -0.23100
C2314       C  0.05540712  0.77510148  0.29705801     0.08800
C2315       C  0.02045928  0.77525548  0.27952609     0.09200
C2316       C  0.01826012  0.78514222  0.24142792    -0.18000
C2317       C  0.05054156  0.79354896  0.21991529    -0.28500
C2318       C  0.08590594  0.79242836  0.23852318     0.17600
C2319       C  0.06186728  0.76150448  0.33542091     0.11500
C2320       C  0.98609377  0.76278055  0.30034497    -0.12800
H2321       H  0.99140621  0.78290622  0.22793594     0.11800
C2322       C  0.12334903  0.79523745  0.21884768    -0.23700
H2323       H  0.11391052  0.78491868  0.29111118     0.07500
C2324       C  0.08420776  0.72990100  0.34027492     0.03800
C2325       C  0.10845422  0.72885186  0.37088444    -0.20900
C2326       C  0.10952680  0.75818288  0.39713734    -0.13200
C2327       C  0.07831553  0.78233004  0.39824917     0.12500
C2328       C  0.05659907  0.78576527  0.36575627    -0.23600
C2329       C  0.08478191  0.69917351  0.31141701    -0.06700
H2330       H  0.12944478  0.70737354  0.37188406     0.14000
C2331       C  0.06486197  0.80179394  0.43316177    -0.16900
H2332       H  0.03669939  0.80815442  0.36358590     0.08400
H2333       H  0.14675920  0.78738373  0.23750188     0.06200
H2334       H  0.12915789  0.82414205  0.21054665     0.07400
H2335       H  0.12474969  0.77605549  0.19442864     0.06500
H2336       H  0.98152401  0.78068617  0.32537424     0.01300
H2337       H  0.98962194  0.73370405  0.30955191     0.01800
H2338       H  0.96084776  0.76426017  0.28247174     0.05300
H2339       H  0.10354744  0.67635308  0.31991399     0.04300
H2340       H  0.09457150  0.70958176  0.28385164    -0.01500
H2341       H  0.05619641  0.68762572  0.30824590     0.00000
H2342       H  0.06810617  0.83215515  0.42997929     0.03700
H2343       H  0.07928571  0.79199286  0.45867260     0.05600
H2344       H  0.03481217  0.79545741  0.43756157     0.06500
C2345       C  0.45356517  0.86455473  0.51726893    -0.23100
C2346       C  0.44197969  0.89305290  0.54140305     0.08800
C2347       C  0.44223050  0.92975673  0.52814205     0.09200
C2348       C  0.45002232  0.93634890  0.49019650    -0.18000
C2349       C  0.45504728  0.90713526  0.46406387    -0.28500
C2350       C  0.45969733  0.87077866  0.47877437     0.17600
C2351       C  0.42129118  0.88183377  0.07978471     0.11500
C2352       C  0.43199043  0.96213016  0.55319436    -0.12800
H2353       H  0.45045739  0.96475183  0.48164040     0.11800
C2354       C  0.47038552  0.83786970  0.45459614    -0.23700
H2355       H  0.45510888  0.83551752  0.03049850     0.07500
C2356       C  0.38817384  0.86062246  0.08213081     0.03800
C2357       C  0.36604285  0.86350706  0.11449254    -0.20900
C2358       C  0.37460713  0.88927462  0.14318340    -0.13200
C2359       C  0.41190596  0.90224941  0.14482921     0.12500
C2360       C  0.43451451  0.89936038  0.11252583    -0.23600
C2361       C  0.37430450  0.83731066  0.04972914    -0.06700
H2362       H  0.33955300  0.84896022  0.11528207     0.14000
C2363       C  0.42975157  0.91597984  0.18038672    -0.16900
H2364       H  0.46188650  0.91221105  0.11233821     0.08400
H2365       H  0.44980570  0.83289807  0.43202182     0.06200
H2366       H  0.47180905  0.81202401  0.47121937     0.07400
H2367       H  0.49844674  0.84209428  0.44221366     0.06500
H2368       H  0.45264194  0.96515675  0.57613126     0.01300
H2369       H  0.40371285  0.95789742  0.56529854     0.01800
H2370       H  0.43172559  0.98865545  0.53764191     0.05300
H2371       H  0.34695835  0.82416164  0.05607595     0.04300
H2372       H  0.39437695  0.81475123  0.04365989    -0.01500
H2373       H  0.37077783  0.85467377  0.02441586     0.00000
H2374       H  0.41301047  0.58039198  0.20417175     0.03700
H2375       H  0.43863179  0.94513598  0.17684549     0.05600
H2376       H  0.45488085  0.89910832  0.18623160     0.06500
C2377       C  0.97833093  0.94845206  0.31542394    -0.23100
C2378       C  0.95281405  0.97217043  0.29836096     0.08800
C2379       C  0.93470978  0.99932084  0.32039515     0.09200
C2380       C  0.93981402  0.99967204  0.35937073    -0.18000
C2381       C  0.96037536  0.97184906  0.37756102    -0.28500
C2382       C  0.98297112  0.94827762  0.35461273     0.17600
C2383       C  0.93627301  0.96095033  0.26200923     0.11500
C2384       C  0.90308379  0.69355362  0.30399716    -0.12800
H2385       H  0.92608036  0.02116150  0.37525088     0.11800
C2386       C  0.01101655  0.92121279  0.36983838    -0.23700
H2387       H  0.99256332  0.92790118  0.29832369     0.07500
C2388       C  0.93878957  0.98243297  0.22930387     0.03800
C2389       C  0.91099855  0.97854113  0.20161798    -0.20900
C2390       C  0.88130004  0.95290484  0.20579642    -0.13200
C2391       C  0.88342216  0.92713899  0.23607152     0.12500
C2392       C  0.91062535  0.93195302  0.26356381    -0.23600
C2393       C  0.96768982  0.68235320  0.22336957    -0.06700
H2394       H  0.91263053  0.99617279  0.17738670     0.14000
C2395       C  0.85662974  0.89530310  0.24279706    -0.16900
H2396       H  0.90983753  0.91458283  0.28830488     0.08400
H2397       H  0.03869571  0.92670770  0.35688450     0.06200
H2398       H  0.00231392  0.89253023  0.36253202     0.07400
H2399       H  0.01483763  0.92290900  0.40054552     0.06500
H2400       H  0.88388967  0.00990864  0.28991180     0.01300
H2401       H  0.91478523  0.71208454  0.28231157     0.01800
H2402       H  0.89006480  0.71124819  0.32601883     0.05300
H2403       H  0.96487584  0.69729087  0.19638151     0.04300
H2404       H  0.99749456  0.99310241  0.22363171    -0.01500
H2405       H  0.96706170  0.70301257  0.24643392     0.00000
H2406       H  0.87255863  0.86902703  0.24357384     0.03700
H2407       H  0.83453701  0.89157730  0.22171326     0.05600
H2408       H  0.84255305  0.89928079  0.27036027     0.06500
C2409       C  0.52041629  0.77310786  0.05957422    -0.23100
C2410       C  0.54613067  0.74998546  0.04157976     0.08800
C2411       C  0.56338089  0.72155763  0.06210805     0.09200
C2412       C  0.55706406  0.71926865  0.10084001    -0.18000
C2413       C  0.53642191  0.74646360  0.12031861    -0.28500
C2414       C  0.51479992  0.77157472  0.09855393     0.17600
C2415       C  0.56314060  0.76267629  0.00609879     0.11500
C2416       C  0.59162939  0.69591624  0.04419661    -0.11600
H2417       H  0.57031461  0.69707283  0.11565241     0.11800
C2418       C  0.48724177  0.79893144  0.11487989    -0.23700
H2419       H  0.50705675  0.79467830  0.04354566     0.07500
C2420       C  0.56038281  0.74284570  0.97212928     0.03800
C2421       C  0.58758522  0.74861922  0.94425622    -0.20900
C2422       C  0.61460735  0.77082299  0.45156424    -0.13200
C2423       C  0.61552303  0.79812293  0.98151635     0.12500
C2424       C  0.58835703  0.79207399  0.00898546    -0.23600
C2425       C  0.52889036  0.71586344  0.96538566    -0.06700
H2426       H  0.58368876  0.72713205  0.42265837     0.14000
C2427       C  0.64231721  0.82971050  0.98930279    -0.16900
H2428       H  0.58897127  0.80854365  0.03459785     0.08400
H2429       H  0.45963914  0.79474857  0.10139105     0.06200
H2430       H  0.49687116  0.82757854  0.10905593     0.07400
H2431       H  0.48289177  0.79646022  0.14544319     0.06500
H2432       H  0.61474955  0.71220544  0.03157695     0.01300
H2433       H  0.57835136  0.67865954  0.02215489     0.01800
H2434       H  0.60405464  0.67683741  0.06497248     0.05300
H2435       H  0.53078783  0.70280540  0.93709740     0.04300
H2436       H  0.50189828  0.73071417  0.96735281    -0.01500
H2437       H  0.52893052  0.69355198  0.98651473     0.00000
H2438       H  0.62642678  0.85596874  0.99135963     0.03700
H2439       H  0.65925772  0.83360110  0.46691499     0.05600
H2440       H  0.65653445  0.82500438  0.01649581     0.06500
Zr2441     Zr  0.60736042  0.87166757  0.81293603     2.17500
O2442       O  0.58622161  0.82267606  0.85497047    -0.52000
O2443       O  0.57664042  0.83180019  0.76707099    -0.75200
O2444       O  0.54675932  0.88412973  0.84351318    -0.82000
O2445       O  0.71084009  0.84831974  0.83230497    -0.83700
O2446       O  0.52536619  0.93930295  0.82258257    -0.79400
O2447       O  0.65256101  0.82407982  0.83133550    -0.91000
O2448       O  0.58298783  0.85558479  0.70869878    -0.77000
O2449       O  0.57983763  0.91200551  0.76858734    -0.86500
O2450       O  0.64749160  0.86939930  0.75921394    -0.86100
O2451       O  0.60672017  0.93109008  0.84422901    -0.72900
O2452       O  0.66701512  0.89409315  0.83248681    -0.85000
Zr2453     Zr  0.67717396  0.99482865  0.76449647     2.26400
Zr2454     Zr  0.57960254  0.97154739  0.79879256     2.06300
Zr2455     Zr  0.70733700  0.89243844  0.77937854     2.10000
Zr2456     Zr  0.62025134  0.91069635  0.71548698     1.78800
O2457       O  0.77199769  0.89412675  0.79997144    -0.93800
O2458       O  0.56507372  0.92812622  0.67996779    -0.41600
O2459       O  0.67860410  0.93398755  0.73696754    -0.78300
O2460       O  0.61710769  0.97073733  0.74293234    -0.97000
O2461       O  0.63898491  0.99376736  0.81940969    -0.90300
O2462       O  0.70706987  0.95350039  0.80749578    -0.93100
C2463       C  0.57136528  0.83088433  0.73148252     1.00600
C2464       C  0.68583678  0.82585117  0.84499618     1.13600
C2465       C  0.52151540  0.90925589  0.84100332     1.04400
O2466       O  0.52528443  0.98866482  0.76199886    -0.95300
O2467       O  0.58442741  0.70137467  0.77760351    -0.91000
O2468       O  0.63192902  0.70355695  0.73567602    -0.84200
C2469       C  0.59948306  0.71351087  0.74750469     1.11000
O2470       O  0.65925197  0.91768358  0.91979075    -0.97200
Zr2471     Zr  0.66783790  0.95253123  0.86210959     1.88900
O2472       O  0.68620091  0.70755527  0.81613472    -0.73900
O2473       O  0.55790644  0.00711745  0.85308931    -0.53100
O2474       O  0.63383983  0.98472101  0.91175964    -0.97800
O2475       O  0.72596865  0.93167149  0.89008882    -0.55000
O2476       O  0.70293293  0.00904008  0.86883898    -0.74400
C2477       C  0.69550821  0.70630832  0.85124692     0.97900
O2478       O  0.71795494  0.04238963  0.73840667    -0.63200
O2479       O  0.72107425  0.83559687  0.74478735    -0.58000
O2480       O  0.72759101  0.97867035  0.71860191    -0.94700
O2481       O  0.74340789  0.91807041  0.72647514    -0.93100
O2482       O  0.65705725  0.87273518  0.67258550    -0.93500
O2483       O  0.63587124  0.94382667  0.65817935    -0.92300
C2484       C  0.74674996  0.94948761  0.70964398     1.16800
H2485       H  0.64928474  0.84458792  0.74914254     0.32700
H2486       H  0.60465408  0.98333526  0.72277349     0.43600
H2487       H  0.73204229  0.96185146  0.81323262     0.37100
H2488       H  0.59165259  0.93040974  0.86680244     0.33600
H2489       H  0.56476038  0.91113810  0.65801267     0.25400
H2490       H  0.53135259  0.01238095  0.84782534     0.31300
H2491       H  0.65325683  0.99309760  0.92965854     0.37200
H2492       H  0.68233299  0.87247541  0.68369478     0.31700
H2493       H  0.74792235  0.83740445  0.73843029     0.30600
H2494       H  0.78149195  0.86890166  0.79479839     0.32200
H2495       H  0.74546812  0.94860968  0.88042872     0.31200
H2496       H  0.65544152  0.96174107  0.66583879     0.35200
H2497       H  0.70184619  0.06428159  0.73498016     0.27900
H2498       H  0.56279919  0.81299249  0.84391295     0.32200
H2499       H  0.64381412  0.89610821  0.91229135     0.35000
H2500       H  0.71959335  0.81570293  0.76370653     0.27600
H2501       H  0.73489880  0.04943721  0.75918473     0.40500
H2502       H  0.53240789  0.98329522  0.73563581     0.30600
H2503       H  0.54366009  0.92006664  0.69557908     0.38200
H2504       H  0.73128448  0.90767023  0.87764761     0.30000
H2505       H  0.55723401  0.98939794  0.87414967     0.30100
H2506       H  0.57854861  0.83486219  0.87876206     0.30400
C2507       C  0.54177660  0.75163249  0.66604287     0.85800
C2508       C  0.57366863  0.72998102  0.68536730    -0.54400
C2509       C  0.57574246  0.73588576  0.72324142     0.08700
C2510       C  0.54644106  0.76271021  0.73854155     0.19700
C2511       C  0.50666661  0.74055842  0.68776334    -0.55100
C2512       C  0.50884921  0.74678804  0.72539015     0.08800
C2513       C  0.55034433  0.79196839  0.67751847    -0.54700
C2514       C  0.55319584  0.79771980  0.71539055     0.09400
H2515       H  0.59285890  0.71121893  0.67159738     0.13900
H2516       H  0.54800589  0.76709075  0.76941948    -0.00300
H2517       H  0.48131154  0.73091719  0.67413077     0.14200
H2518       H  0.55676980  0.81329852  0.65713041     0.14000
C2519       C  0.65334743  0.77101345  0.92609363     0.85800
C2520       C  0.68757856  0.76631397  0.95043587    -0.54400
C2521       C  0.72075679  0.76747424  0.93225861     0.08700
C2522       C  0.71623142  0.77067424  0.88786862     0.19700
C2523       C  0.66042946  0.80587788  0.90364388    -0.55100
C2524       C  0.69139015  0.80559714  0.88113638     0.08800
C2525       C  0.65653763  0.73945691  0.89680908    -0.54700
C2526       C  0.68912494  0.73869537  0.87671583     0.09400
H2527       H  0.68244492  0.76339528  0.48236804     0.13900
H2528       H  0.74304376  0.77090805  0.87218668    -0.00300
H2529       H  0.63948190  0.82736935  0.90204138     0.14200
H2530       H  0.63547963  0.71859110  0.89200859     0.14000
Zr2531     Zr  0.89601947  0.83979763  0.56412936     2.17500
O2532       O  0.92300665  0.89102760  0.60010924    -0.52000
O2533       O  0.92426898  0.88229829  0.51924473    -0.75200
O2534       O  0.95318768  0.82154551  0.59776639    -0.82000
O2535       O  0.79138620  0.87551346  0.58178218    -0.83700
O2536       O  0.97205187  0.76663127  0.57305394    -0.79400
O2537       O  0.85242860  0.87905903  0.59727943    -0.91000
O2538       O  0.91601332  0.86039554  0.46009498    -0.77000
O2539       O  0.92073522  0.80017370  0.51716568    -0.86500
O2540       O  0.85431963  0.84610946  0.51207120    -0.86100
O2541       O  0.89315984  0.77976595  0.59289356    -0.72900
O2542       O  0.83463046  0.82179057  0.58290156    -0.85000
Zr2543     Zr  0.81860628  0.72185718  0.51369505     2.26400
Zr2544     Zr  0.91763339  0.74002142  0.54467368     2.06300
Zr2545     Zr  0.79292907  0.82581078  0.53154233     2.10000
Zr2546     Zr  0.87882937  0.80491653  0.46569848     1.78800
O2547       O  0.73058609  0.82283096  0.55885878    -0.93800
O2548       O  0.93996376  0.78596845  0.93463465    -0.41600
O2549       O  0.81977110  0.78325112  0.48767782    -0.78300
O2550       O  0.87886091  0.74341006  0.48993661    -0.97000
O2551       O  0.85768446  0.72186132  0.56772402    -0.90300
O2552       O  0.79091968  0.76449540  0.55806558    -0.93100
C2553       C  0.92814953  0.88456751  0.48349872     1.00600
C2554       C  0.81832132  0.88890024  0.60209307     1.13600
C2555       C  0.97652818  0.79467045  0.59455295     1.04400
O2556       O  0.96428105  0.72592457  0.49680178    -0.95300
O2557       O  0.90240055  0.67604503  0.53261556    -0.91000
O2558       O  0.86178072  0.67687719  0.48538164    -0.84200
C2559       C  0.89272916  0.66602542  0.49982193     1.11000
O2560       O  0.83934345  0.80183442  0.66805360    -0.97200
Zr2561     Zr  0.83063631  0.76386762  0.61189503     1.88900
O2562       O  0.81290395  0.67634641  0.56655345    -0.73900
O2563       O  0.95099916  0.70233959  0.58993486    -0.53100
O2564       O  0.86080419  0.73422848  0.66482364    -0.97800
O2565       O  0.77292983  0.78639191  0.64028385    -0.55000
O2566       O  0.79339714  0.70881261  0.61676419    -0.74400
C2567       C  0.80292981  0.67844774  0.60148095     0.97900
O2568       O  0.77544234  0.67685019  0.99166344    -0.63200
O2569       O  0.77602391  0.88126495  0.49722986    -0.58000
O2570       O  0.76913838  0.73948891  0.46785069    -0.94700
O2571       O  0.75589917  0.80064320  0.47770155    -0.93100
O2572       O  0.84741383  0.84151912  0.92079215    -0.93500
O2573       O  0.86750988  0.77454798  0.90587914    -0.92300
C2574       C  0.75115363  0.76950806  0.45978311     1.16800
H2575       H  0.85330871  0.87134231  0.50336483     0.32700
H2576       H  0.88967449  0.73000840  0.46916362     0.43600
H2577       H  0.76570060  0.75695582  0.56403263     0.37100
H2578       H  0.90777116  0.77789434  0.61549313     0.33600
H2579       H  0.94222665  0.80243343  0.91263224     0.25400
H2580       H  0.93126158  0.68878157  0.60374282     0.31300
H2581       H  0.84004221  0.72654641  0.68150359     0.37200
H2582       H  0.82328125  0.84656184  0.93339798     0.31700
H2583       H  0.78051840  0.87489595  0.47051319     0.30600
H2584       H  0.71634761  0.80604707  0.54207543     0.32200
H2585       H  0.75265241  0.77153903  0.62881065     0.31200
H2586       H  0.87160643  0.74781762  0.91001037     0.35200
H2587       H  0.78855829  0.65291323  0.99391881     0.27900
H2588       H  0.94884412  0.89393552  0.59064736     0.32200
H2589       H  0.86220005  0.81647457  0.66299291     0.35000
H2590       H  0.74852590  0.88257025  0.49956849     0.27600
H2591       H  0.75603196  0.67616982  0.01152243     0.40500
H2592       H  0.98634065  0.71756839  0.51102547     0.30600
H2593       H  0.96009026  0.79429058  0.95173600     0.38200
H2594       H  0.76963446  0.81154653  0.63001156     0.30000
H2595       H  0.96391224  0.68315660  0.57478911     0.30100
H2596       H  0.92581735  0.88177263  0.62604846     0.30400
C2597       C  0.95670299  0.96765107  0.91930042     0.85800
C2598       C  0.92424845  0.98809791  0.93918407    -0.54400
C2599       C  0.92090805  0.97980898  0.47764793     0.08700
C2600       C  0.95094305  0.95351283  0.49238871     0.19700
C2601       C  0.99158871  0.97841044  0.94160382    -0.55100
C2602       C  0.98881860  0.96995205  0.47989521     0.08800
C2603       C  0.94846846  0.92679016  0.92912984    -0.54700
C2604       C  0.94509172  0.91868911  0.46817404     0.09400
H2605       H  0.90412323  0.66960384  0.92601913     0.13900
H2606       H  0.94898675  0.94864696  0.52310574    -0.00300
H2607       H  0.01718002  0.98781077  0.92820671     0.14200
H2608       H  0.94276268  0.90578337  0.90792225     0.14000
C2609       C  0.84776914  0.95419238  0.67981836     0.85800
C2610       C  0.81268923  0.95792379  0.70325830    -0.54400
C2611       C  0.78020117  0.95355384  0.68459801     0.08700
C2612       C  0.78578426  0.94789831  0.64062465     0.19700
C2613       C  0.84374368  0.91795729  0.65846660    -0.55100
C2614       C  0.81307747  0.91445833  0.63559272     0.08800
C2615       C  0.84332751  0.98355935  0.64895105    -0.54700
C2616       C  0.81087882  0.98105209  0.62868405     0.09400
H2617       H  0.81358707  0.96166897  0.73361171     0.13900
H2618       H  0.75941100  0.94513362  0.62460859    -0.00300
H2619       H  0.86636741  0.89803498  0.65884638     0.14200
H2620       H  0.86469613  0.67108934  0.64259962     0.14000
Zr2621     Zr  0.39293694  0.70088765  0.77407582     2.17500
O2622       O  0.42205959  0.65091940  0.73834660    -0.52000
O2623       O  0.42091020  0.99022305  0.81817295    -0.75200
O2624       O  0.45137871  0.71976222  0.74369702    -0.82000
O2625       O  0.29334323  0.99217366  0.75947713    -0.83700
O2626       O  0.47115983  0.77246161  0.77214021    -0.79400
O2627       O  0.35371173  0.99124157  0.74048149    -0.91000
O2628       O  0.41410564  0.68173070  0.87712987    -0.77000
O2629       O  0.41724058  0.74120653  0.82063551    -0.86500
O2630       O  0.35187061  0.69353999  0.82654787    -0.86100
O2631       O  0.38986289  0.76056127  0.74451426    -0.72900
O2632       O  0.33131086  0.71685253  0.75377770    -0.85000
Zr2633     Zr  0.31583913  0.81690331  0.82722245     2.26400
Zr2634     Zr  0.41410488  0.80087823  0.79219826     2.06300
Zr2635     Zr  0.29078019  0.71176925  0.80653657     2.10000
Zr2636     Zr  0.37577107  0.73541695  0.87260176     1.78800
O2637       O  0.22871455  0.71028757  0.77888614    -0.93800
O2638       O  0.42994732  0.75401011  0.90950597    -0.41600
O2639       O  0.31672587  0.75471368  0.85065853    -0.78300
O2640       O  0.37693070  0.79639498  0.84819855    -0.97000
O2641       O  0.35343361  0.81909846  0.77150343    -0.90300
O2642       O  0.28785433  0.77404508  0.78238397    -0.93100
C2643       C  0.42569548  0.98908587  0.85384527     1.00600
C2644       C  0.32022624  0.97907252  0.73846921     1.13600
C2645       C  0.47553729  0.74554578  0.74924754     1.04400
O2646       O  0.46501002  0.82350965  0.83133519    -0.95300
O2647       O  0.40204308  0.86449888  0.80838288    -0.91000
O2648       O  0.36033405  0.86165359  0.85524353    -0.84200
C2649       C  0.39134612  0.87360190  0.84124918     1.11000
O2650       O  0.29622495  0.72147502  0.70165117    -0.97200
Zr2651     Zr  0.32664602  0.77641964  0.72737724     1.88900
O2652       O  0.30226240  0.86325783  0.77804353    -0.73900
O2653       O  0.44019964  0.83200891  0.73756493    -0.53100
O2654       O  0.36823861  0.79160447  0.67505766    -0.97800
O2655       O  0.29764992  0.78884276  0.66661955    -0.55000
O2656       O  0.28070496  0.82503554  0.73444227    -0.74400
C2657       C  0.29035636  0.85737365  0.74456815     0.97900
O2658       O  0.27218342  0.86124175  0.85447211    -0.63200
O2659       O  0.27596551  0.65814272  0.84502570    -0.58000
O2660       O  0.26858153  0.79727039  0.87407483    -0.94700
O2661       O  0.25239247  0.73758718  0.85943045    -0.93100
O2662       O  0.33937432  0.69544482  0.91366075    -0.93500
O2663       O  0.35869779  0.76500237  0.93187099    -0.92300
C2664       C  0.24910004  0.76761750  0.87962215     1.16800
H2665       H  0.35111745  0.66835241  0.83541432     0.32700
H2666       H  0.38870346  0.80911941  0.86892988     0.43600
H2667       H  0.26195261  0.77984382  0.77796857     0.37100
H2668       H  0.40540111  0.76156057  0.72242183     0.33600
H2669       H  0.43063565  0.73643971  0.93069927     0.25400
H2670       H  0.41825449  0.84104070  0.72360768     0.31300
H2671       H  0.37093275  0.76818827  0.66068274     0.37200
H2672       H  0.31320824  0.69885544  0.90561701     0.31700
H2673       H  0.24865753  0.65942336  0.84904969     0.30600
H2674       H  0.21134387  0.71009491  0.80056742     0.32200
H2675       H  0.29774262  0.81596258  0.66320820     0.31200
H2676       H  0.34201904  0.78552578  0.92468418     0.35200
H2677       H  0.28652024  0.88461091  0.85678935     0.27900
H2678       H  0.44737971  0.98126187  0.74764115     0.32200
H2679       H  0.31105780  0.71485266  0.67906322     0.35000
H2680       H  0.27799612  0.97003053  0.82890649     0.27600
H2681       H  0.25375075  0.86602304  0.83445326     0.40500
H2682       H  0.45930668  0.81418782  0.85679478     0.30600
H2683       H  0.45177617  0.74729286  0.89379349     0.38200
H2684       H  0.27095275  0.78246782  0.66993305     0.30000
H2685       H  0.45220831  0.85464064  0.74776234     0.30100
H2686       H  0.42723572  0.66146141  0.71327552     0.30400
C2687       C  0.45208209  0.91169217  0.92207692     0.85800
C2688       C  0.42053302  0.88949263  0.90297432    -0.54400
C2689       C  0.41846120  0.89390001  0.86499100     0.08700
C2690       C  0.44870130  0.91977785  0.84894997     0.19700
C2691       C  0.48809574  0.90100616  0.90112176    -0.55100
C2692       C  0.48667885  0.90542115  0.86307308     0.08800
C2693       C  0.44487654  0.95184664  0.90873134    -0.54700
C2694       C  0.44229795  0.95577306  0.87065698     0.09400
H2695       H  0.40142098  0.87173226  0.91834881     0.13900
H2696       H  0.44741764  0.92287663  0.81795944    -0.00300
H2697       H  0.51406472  0.89544618  0.91557736     0.14200
H2698       H  0.43967934  0.97540958  0.92666091     0.14000
C2699       C  0.34384458  0.90309057  0.66517156     0.85800
C2700       C  0.30983422  0.90963120  0.64066599    -0.54400
C2701       C  0.27786471  0.91818621  0.65874349     0.08700
C2702       C  0.28287150  0.92093967  0.70291553     0.19700
C2703       C  0.34677990  0.93952529  0.68729816    -0.55100
C2704       C  0.31585492  0.94878260  0.70898674     0.08800
C2705       C  0.33205381  0.87487570  0.69416799    -0.54700
C2706       C  0.30079763  0.88333306  0.71419539     0.09400
H2707       H  0.31100969  0.90821755  0.61013543     0.13900
H2708       H  0.25716678  0.92792728  0.71887590    -0.00300
H2709       H  0.37167871  0.95648519  0.68628820     0.14200
H2710       H  0.34856562  0.85062865  0.69996921     0.14000
Zr2711     Zr  0.11052889  0.67302245  0.02955630     2.17500
O2712       O  0.08797298  0.72518942  0.99264950    -0.52000
O2713       O  0.07741454  0.71029227  0.57459332    -0.75200
O2714       O  0.05059609  0.65967130  0.99778651    -0.82000
O2715       O  0.21399502  0.69580494  0.00967388    -0.83700
O2716       O  0.02591741  0.94013216  0.02310597    -0.79400
O2717       O  0.15739007  0.72133494  0.01746407    -0.91000
O2718       O  0.09041071  0.69048461  0.63322301    -0.77000
O2719       O  0.08193462  0.96537855  0.57511681    -0.86500
O2720       O  0.15140022  0.67386526  0.58206568    -0.86100
O2721       O  0.10831507  0.94629423  0.99767745    -0.72900
O2722       O  0.16930300  0.98327234  0.01014688    -0.85000
Zr2723     Zr  0.17820963  0.88054566  0.57443615     2.26400
Zr2724     Zr  0.08017875  0.90597518  0.54485102     2.06300
Zr2725     Zr  0.21034589  0.98202167  0.56154771     2.10000
Zr2726     Zr  0.12342132  0.96524357  0.62688895     1.78800
O2727       O  0.27458431  0.98055418  0.04407249    -0.93800
O2728       O  0.06873678  0.94490882  0.66215024    -0.41600
O2729       O  0.18047195  0.94068313  0.60327849    -0.78300
O2730       O  0.11945146  0.90512503  0.59902967    -0.97000
O2731       O  0.13843672  0.88348819  0.52151459    -0.90300
O2732       O  0.20824053  0.92184478  0.53155663    -0.93100
C2733       C  0.07557756  0.71309797  0.61034181     1.00600
C2734       C  0.18856318  0.71881049  0.99969458     1.13600
C2735       C  0.02355257  0.96831126  0.00184835     1.04400
O2736       O  0.03092265  0.89132466  0.58967306    -0.95300
O2737       O  0.08649631  0.84102822  0.55931485    -0.91000
O2738       O  0.13323876  0.83795162  0.60138974    -0.84200
C2739       C  0.10057577  0.82894963  0.58965750     1.11000
O2740       O  0.16087423  0.96512205  0.92475844    -0.97200
Zr2741     Zr  0.16958486  0.92559994  0.97920035     1.88900
O2742       O  0.18480421  0.83501902  0.52066609    -0.73900
O2743       O  0.05146646  0.87245454  0.99129796    -0.53100
O2744       O  0.13824354  0.89482492  0.92696850    -0.97800
O2745       O  0.23013895  0.94503355  0.95452662    -0.55000
O2746       O  0.20080552  0.86776991  0.96824512    -0.74400
C2747       C  0.19509090  0.83765910  0.98571004     0.97900
O2748       O  0.22167630  0.83296780  0.59444303    -0.63200
O2749       O  0.22933641  0.70551078  0.59492912    -0.58000
O2750       O  0.22609701  0.89523309  0.62289842    -0.94700
O2751       O  0.24349684  0.95567426  0.61634893    -0.93100
O2752       O  0.16402425  0.66761613  0.66961720    -0.93500
O2753       O  0.13981661  0.93595440  0.68597892    -0.92300
C2754       C  0.24542920  0.92400176  0.63303056     1.16800
H2755       H  0.15410142  0.69867603  0.59207242     0.32700
H2756       H  0.10760430  0.89187077  0.61921363     0.43600
H2757       H  0.23346199  0.91485127  0.02806186     0.37100
H2758       H  0.09347043  0.94693136  0.97514819     0.33600
H2759       H  0.06577290  0.96349985  0.68250705     0.25400
H2760       H  0.02572928  0.86692004  0.99983743     0.31300
H2761       H  0.11137693  0.89981954  0.93082377     0.37200
H2762       H  0.14700789  0.67756328  0.68917331     0.31700
H2763       H  0.22220231  0.70090725  0.62137773     0.30600
H2764       H  0.28867258  0.99147300  0.06532694     0.32200
H2765       H  0.24842385  0.92700241  0.96413111     0.31200
H2766       H  0.13816031  0.90903681  0.68081364     0.35200
H2767       H  0.20713817  0.80962797  0.59366610     0.27900
H2768       H  0.06634554  0.73520899  0.00672387     0.32200
H2769       H  0.17658959  0.95431059  0.90458174     0.35000
H2770       H  0.25694689  0.70481580  0.59494025     0.27600
H2771       H  0.23979636  0.83061792  0.57349810     0.40500
H2772       H  0.01522993  0.87273707  0.57656401     0.30600
H2773       H  0.04741570  0.94937555  0.64520447     0.38200
H2774       H  0.23599732  0.96837034  0.96802647     0.30000
H2775       H  0.04836020  0.89090334  0.97114456     0.30100
H2776       H  0.07718360  0.71501832  0.96917430     0.30400
C2777       C  0.04777066  0.79278789  0.67491682     0.85800
C2778       C  0.07491062  0.81691867  0.65234808    -0.54400
C2779       C  0.07616875  0.80870487  0.61504377     0.08700
C2780       C  0.04769569  0.77976622  0.60258948     0.19700
C2781       C  0.00988898  0.80073313  0.65594262    -0.55100
C2782       C  0.01014792  0.79396797  0.61800399     0.08800
C2783       C  0.05675846  0.75271090  0.66386065    -0.54700
C2784       C  0.05750120  0.74604610  0.62624701     0.09400
H2785       H  0.08998074  0.84025503  0.66411227     0.13900
H2786       H  0.04786618  0.77449927  0.57179771    -0.00300
H2787       H  0.98507545  0.81024951  0.67051274     0.14200
H2788       H  0.06488006  0.73209297  0.68432789     0.14000
C2789       C  0.14946275  0.76801033  0.91738041     0.85800
C2790       C  0.18235194  0.76860673  0.89031625    -0.54400
C2791       C  0.21657833  0.76965812  0.90644266     0.08700
C2792       C  0.21464255  0.77137627  0.95114832     0.19700
C2793       C  0.15760311  0.73536247  0.94265357    -0.55100
C2794       C  0.19007732  0.73747412  0.96253076     0.08800
C2795       C  0.15556974  0.80277854  0.94200215    -0.54700
C2796       C  0.18862354  0.80454960  0.96081733     0.09400
H2797       H  0.17879021  0.76752188  0.85999324     0.13900
H2798       H  0.24223915  0.77242647  0.96515262    -0.00300
H2799       H  0.13753997  0.71328196  0.94685358     0.14200
H2800       H  0.13651849  0.82562564  0.94389214     0.14000
C2801       C  0.08989048  0.79023823  0.77362274    -0.23100
C2802       C  0.05847337  0.78238800  0.79525893     0.08800
C2803       C  0.02285515  0.78382350  0.77910264     0.09200
C2804       C  0.01973949  0.79144707  0.74053480    -0.18000
C2805       C  0.05164215  0.79667001  0.71755101    -0.28500
C2806       C  0.08758696  0.79538539  0.73501460     0.17600
C2807       C  0.06583627  0.76963383  0.83371063     0.11500
C2808       C  0.98854432  0.77543273  0.80205331    -0.12800
H2809       H  0.99231098  0.79017092  0.72817728     0.11800
C2810       C  0.12449880  0.79611766  0.71405303    -0.23700
H2811       H  0.11707473  0.78939348  0.78692608     0.07500
C2812       C  0.08635751  0.73684942  0.83896416     0.03800
C2813       C  0.10991455  0.73440282  0.87007258    -0.20900
C2814       C  0.11231501  0.76367613  0.89630241    -0.13200
C2815       C  0.08293015  0.79000486  0.89642284     0.12500
C2816       C  0.06217543  0.79469366  0.86352787    -0.23600
C2817       C  0.08561769  0.70601063  0.81020453    -0.06700
H2818       H  0.12947203  0.71166288  0.87156969     0.14000
C2819       C  0.06990448  0.81051350  0.93082202    -0.16900
H2820       H  0.04388617  0.81834674  0.86085651     0.08400
H2821       H  0.14819592  0.78817666  0.73229068     0.06200
H2822       H  0.13109742  0.82443580  0.70438926     0.07400
H2823       H  0.12457056  0.77604600  0.69035976     0.06500
H2824       H  0.98612483  0.79567575  0.82552647     0.01300
H2825       H  0.99044948  0.74707463  0.81368064     0.01800
H2826       H  0.96276216  0.77703146  0.78495211     0.05300
H2827       H  0.10276372  0.68213058  0.81913931     0.04300
H2828       H  0.09661756  0.71566933  0.78281278    -0.01500
H2829       H  0.05645728  0.69619858  0.80645870     0.00000
H2830       H  0.07567219  0.84049782  0.92764728     0.03700
H2831       H  0.08255203  0.79953483  0.95681882     0.05600
H2832       H  0.03930980  0.80668836  0.93415534     0.06500
C2833       C  0.45178034  0.86295714  0.01904462    -0.23100
C2834       C  0.43806063  0.89106414  0.04257139     0.08800
C2835       C  0.43549755  0.92729206  0.02837384     0.09200
C2836       C  0.44390456  0.93384315  0.99056257    -0.18000
C2837       C  0.45297122  0.90498843  0.96510104    -0.28500
C2838       C  0.45905976  0.86913196  0.98061703     0.17600
C2839       C  0.42382043  0.88376063  0.57781569     0.11500
C2840       C  0.42157279  0.95913884  0.05231734    -0.12800
H2841       H  0.44135773  0.96193096  0.98164027     0.11800
C2842       C  0.47265021  0.83669085  0.95734517    -0.23700
H2843       H  0.45542846  0.83675831  0.52822638     0.07500
C2844       C  0.38983991  0.86377134  0.57866534     0.03800
C2845       C  0.36816221  0.86471505  0.61135648    -0.20900
C2846       C  0.37686394  0.88917530  0.64111143    -0.13200
C2847       C  0.41429766  0.90171707  0.64349806     0.12500
C2848       C  0.43725103  0.89933343  0.61142402    -0.23600
C2849       C  0.37420178  0.84451178  0.54436414    -0.06700
H2850       H  0.34154298  0.85037620  0.61145771     0.14000
C2851       C  0.43188183  0.91476738  0.67942421    -0.16900
H2852       H  0.46505674  0.91120398  0.61212185     0.08400
H2853       H  0.45366966  0.83094733  0.93353450     0.06200
H2854       H  0.47416918  0.81096131  0.97414743     0.07400
H2855       H  0.50122554  0.84209588  0.94675699     0.06500
H2856       H  0.44118605  0.96459277  0.07573570     0.01300
H2857       H  0.39346967  0.95257092  0.06374577     0.01800
H2858       H  0.41925633  0.98517675  0.03613034     0.05300
H2859       H  0.34607495  0.83263579  0.54976822     0.04300
H2860       H  0.39256912  0.82134173  0.53572276    -0.01500
H2861       H  0.37156679  0.86447625  0.52097631     0.00000
H2862       H  0.41328585  0.57792678  0.70267815     0.03700
H2863       H  0.44100900  0.94390041  0.67632394     0.05600
H2864       H  0.45686275  0.89767523  0.68523906     0.06500
C2865       C  0.97931187  0.95284527  0.81433095    -0.23100
C2866       C  0.95373133  0.97710356  0.79807956     0.08800
C2867       C  0.93614042  0.00399499  0.82090979     0.09200
C2868       C  0.94187248  0.00347835  0.85972380    -0.18000
C2869       C  0.96146384  0.97446958  0.87698306    -0.28500
C2870       C  0.98375955  0.95125106  0.85346199     0.17600
C2871       C  0.93642025  0.96607848  0.76206138     0.11500
C2872       C  0.90635425  0.69147932  0.80528735    -0.12800
H2873       H  0.92909785  0.02507350  0.87629470     0.11800
C2874       C  0.01127204  0.92326446  0.86794339    -0.23700
H2875       H  0.99329471  0.93262463  0.79661929     0.07500
C2876       C  0.93789845  0.98769698  0.72942748     0.03800
C2877       C  0.91062334  0.98213597  0.70149660    -0.20900
C2878       C  0.88234897  0.95486106  0.70536767    -0.13200
C2879       C  0.88549277  0.92950667  0.73590736     0.12500
C2880       C  0.91229495  0.93579818  0.76351908    -0.23600
C2881       C  0.96919166  0.67952793  0.72604515    -0.06700
H2882       H  0.91145124  0.99995766  0.67741768     0.14000
C2883       C  0.86014112  0.89660175  0.74287946    -0.16900
H2884       H  0.91239914  0.91836430  0.78822539     0.08400
H2885       H  0.03914713  0.92883906  0.85545957     0.06200
H2886       H  0.00226062  0.89496676  0.85951485     0.07400
H2887       H  0.01480053  0.92386476  0.89872940     0.06500
H2888       H  0.88488402  0.01522898  0.79143101     0.01300
H2889       H  0.91925926  0.71049700  0.78476587     0.01800
H2890       H  0.89322411  0.70885575  0.82750502     0.05300
H2891       H  0.96621063  0.69564634  0.69980091     0.04300
H2892       H  0.99602342  0.00145153  0.72422266    -0.01500
H2893       H  0.96980699  0.69924547  0.74997620     0.00000
H2894       H  0.87710436  0.87094591  0.74293457     0.03700
H2895       H  0.83753170  0.89241725  0.72246496     0.05600
H2896       H  0.84664516  0.89972310  0.77083846     0.06500
C2897       C  0.51921521  0.77224297  0.56270896    -0.23100
C2898       C  0.54480919  0.74906243  0.54456543     0.08800
C2899       C  0.56307691  0.72137387  0.56524613     0.09200
C2900       C  0.55742705  0.71957183  0.60404100    -0.18000
C2901       C  0.53700573  0.74692496  0.62346126    -0.28500
C2902       C  0.51456587  0.77139444  0.60182714     0.17600
C2903       C  0.56056882  0.76103588  0.50830973     0.11500
C2904       C  0.59186912  0.69623335  0.54746094    -0.11600
H2905       H  0.57100328  0.69760716  0.61890944     0.11800
C2906       C  0.48689183  0.79851462  0.61835692    -0.23700
H2907       H  0.50507963  0.79325758  0.54657812     0.07500
C2908       C  0.55825017  0.73960174  0.47533907     0.03800
C2909       C  0.58534833  0.74466053  0.44716983    -0.20900
C2910       C  0.61779791  0.77332489  0.95016201    -0.13200
C2911       C  0.61160939  0.79692447  0.48180087     0.12500
C2912       C  0.58484179  0.79123685  0.50969631    -0.23600
C2913       C  0.52722980  0.71175788  0.47003091    -0.06700
H2914       H  0.58523134  0.73275953  0.91865086     0.14000
C2915       C  0.63728081  0.82972344  0.48818073    -0.16900
H2916       H  0.58515383  0.80875419  0.53459837     0.08400
H2917       H  0.45916707  0.79394908  0.60524597     0.06200
H2918       H  0.49610673  0.82723939  0.61227038     0.07400
H2919       H  0.48292591  0.79604345  0.64898621     0.06500
H2920       H  0.61447860  0.71298594  0.53453513     0.01300
H2921       H  0.57897396  0.67835797  0.52570617     0.01800
H2922       H  0.60494113  0.67773754  0.56838229     0.05300
H2923       H  0.52957081  0.69707539  0.44261033     0.04300
H2924       H  0.50000628  0.72629061  0.47086136    -0.01500
H2925       H  0.52732126  0.69078422  0.49253597     0.00000
H2926       H  0.62045641  0.85546641  0.48894153     0.03700
H2927       H  0.66419555  0.83377974  0.96792473     0.05600
H2928       H  0.65149238  0.82678134  0.51564166     0.06500
loop_ 
_geom_bond_atom_site_label_1 
_geom_bond_atom_site_label_2 
_geom_bond_distance 
_geom_bond_site_symmetry_2 
_ccdc_geom_bond_type 
Zr1           O2   2.443       .  S
Zr1           O3   2.438       .  S
Zr1           O4   2.478       .  S
Zr1           O7   2.446       .  S
Zr1           O9   2.373       .  S
Zr1          O10   2.395       .  S
Zr1          O11   2.410       .  S
Zr1          O12   2.396       .  S
O2           H58   0.990       .  S
O2           H66   0.990       .  S
O3           C23   1.283       .  A
O4           C25   1.291       .  A
O5          Zr15   2.501       .  S
O5           C24   1.295       .  A
O6          Zr14   2.412       .  S
O6           C25   1.278       .  A
O7           C24   1.289       .  A
O8          Zr16   2.396       .  S
O8           C23   1.276       .  A
O9          Zr14   2.398       .  S
O9          Zr16   2.378       .  S
O10         Zr15   2.413       .  S
O10         Zr16   2.382       .  S
O10          H45   0.966       .  S
O11         Zr14   2.398       .  S
O11         Zr31   2.407       .  S
O11          H48   0.967       .  S
O12         Zr15   2.381       .  S
O12         Zr31   2.360       .  S
Zr13         O38   2.437       .  S
Zr13         O40   2.492       .  S
Zr13       O1008   2.523       .  S
Zr13       O1004   2.446       .  S
Zr13         O19   2.399       .  S
Zr13         O20   2.444       .  S
Zr13         O21   2.379       .  S
Zr13         O22   2.407       .  S
Zr14         O33   2.436       .  S
Zr14         O26   2.435       .  S
Zr14       O1003   2.420       .  S
Zr14         O20   2.394       .  S
Zr14         O21   2.388       .  S
Zr15         O17   2.435       .  S
Zr15         O39   2.436       .  S
Zr15         O41   2.486       .  S
Zr15         O19   2.370       .  S
Zr15         O22   2.417       .  S
Zr16         O42   2.436       .  S
Zr16         O43   2.436       .  S
Zr16         O18   2.438       .  S
Zr16         O19   2.372       .  S
Zr16         O20   2.383       .  S
O17          H54   0.990       .  S
O18          H49   0.990       .  S
O18          H63   0.990       .  S
O20          H46   0.965       .  S
O21         Zr31   2.383       .  S
O22         Zr31   2.393       .  S
O22          H47   0.965       .  S
C23          C74   1.474       .  S
C24          C84   1.505       .  S
C25         C252   1.483       .  S
O26          H62   0.990       .  S
O27       Zr1966   2.420   1_545  S
O27          C29   1.276       .  A
O28       Zr1965   2.451   1_545  S
O28          C29   1.287       .  A
C29          C69   1.468       .  S
O30         Zr31   2.436       .  S
O30          H59   0.990       .  S
Zr31         O34   2.435       .  S
Zr31         O35   2.438       .  S
Zr31         O36   2.406       .  S
O32       Zr1965   2.519   1_545  S
O32          C37   1.297       .  A
O33          H50   0.990       .  S
O33          H65   0.990       .  S
O34          H51   0.991       .  S
O35          H55   0.990       .  S
O35          H64   0.990       .  S
O36        C1013   1.272       .  A
C37        O1988   1.273       .  A
C37          C86   1.497       .  S
O38          H57   0.990       .  S
O38          H61   0.991       .  S
O39          H53   0.990       .  S
O39          H60   0.990       .  S
O40          C44   1.296       .  A
O41          C44   1.298       .  A
O42          H52   0.990       .  S
O43          H56   0.990       .  S
C44         C171   1.499       .  S
C67          C68   1.554       .  S
C67          C73   1.541       .  S
C67          C71   1.530       .  S
C67         C461   1.538       .  S
C68          H75   1.082       .  S
C68          C69   1.368       .  D
C69          C70   1.529       .  S
C70          C74   1.530       .  S
C70          C72   1.537       .  S
C70          H76   1.111       .  S
C71          H77   1.087       .  S
C71          C72   1.360       .  D
C72         C205   1.464       .  S
C73          H78   1.086       .  S
C73          C74   1.368       .  D
C79          C80   1.513       .  S
C79          C85   1.543       .  S
C79          C83   1.520       .  S
C79         C470   1.536       .  S
C80         H575   1.089       .  S
C80          C81   1.351       .  D
C81         C622   1.503       .  S
C81          C82   1.593       .  S
C82          C86   1.560       .  S
C82          C84   1.569       .  S
C82          H88   1.110       .  S
C83          H89   1.086       .  S
C83          C84   1.371       .  D
C85          H90   1.078       .  S
C85          C86   1.369       .  D
H87         C568   1.088       .  S
Zr91         O92   2.442       .  S
Zr91         O93   2.447       .  S
Zr91         O94   2.473       .  S
Zr91         O97   2.426       .  S
Zr91         O99   2.369       .  S
Zr91        O100   2.397       .  S
Zr91        O101   2.415       .  S
Zr91        O102   2.381       .  S
O92         H148   0.990       .  S
O92         H156   0.990       .  S
O93         C113   1.285   1_554  A
O94         C115   1.290       .  A
O95        Zr105   2.516       .  S
O95         C114   1.296       .  A
O96        Zr104   2.387       .  S
O96         C115   1.274       .  A
O97         C114   1.288       .  A
O98        Zr106   2.418       .  S
O98         C113   1.280       .  A
O99        Zr104   2.395       .  S
O99        Zr106   2.380   1_554  S
O100       Zr105   2.415       .  S
O100       Zr106   2.382   1_554  S
O100        H135   0.966       .  S
O101       Zr104   2.404       .  S
O101       Zr121   2.412       .  S
O101        H138   0.965       .  S
O102       Zr105   2.368       .  S
O102       Zr121   2.341       .  S
Zr103       O616   2.436   1_554  S
Zr103       O122   2.519       .  S
Zr103       O130   2.497   1_554  S
Zr103       O118   2.448   1_554  S
Zr103       O109   2.411   1_554  S
Zr103       O110   2.445   1_554  S
Zr103       O111   2.384       .  S
Zr103       O112   2.410       .  S
Zr104       O123   2.441       .  S
Zr104       O116   2.436   1_554  S
Zr104       O117   2.414       .  S
Zr104       O110   2.394   1_554  S
Zr104       O111   2.389       .  S
Zr105       O107   2.435       .  S
Zr105       O129   2.439   1_554  S
Zr105       O131   2.482   1_554  S
Zr105       O109   2.381   1_554  S
Zr105       O112   2.417       .  S
Zr106       O620   2.434       .  S
Zr106       O621   2.434       .  S
Zr106       O596   2.439       .  S
Zr106       O109   2.387       .  S
Zr106       O110   2.388       .  S
O107        H144   0.990       .  S
O108       Zr594   2.439       .  S
O108        H139   0.990       .  S
O108        H153   0.990       .  S
O110        H136   0.962       .  S
O111       Zr121   2.385       .  S
O112       Zr121   2.394       .  S
O112        H137   0.966       .  S
C113        C164   1.485       .  S
C114        C174   1.512       .  S
C115        C342   1.465   1_655  S
O116        H152   0.990   1_556  S
O117        C119   1.270   1_545  A
O118        C119   1.286   1_546  A
C119       C2111   1.473   1_554  S
O120       Zr121   2.437       .  S
O120        H149   0.990       .  S
Zr121       O124   2.435       .  S
Zr121       O125   2.439       .  S
Zr121       O126   2.398       .  S
O122        C127   1.296       .  A
O123        H140   0.990       .  S
O123        H155   0.991       .  S
O124        H141   0.991       .  S
O125        H145   0.990       .  S
O125        H154   0.990       .  S
O126        C127   1.269       .  A
C127       C2128   1.491   1_545  S
O128       Zr591   2.436       .  S
O128        H147   0.990   1_545  S
O128        H151   0.990       .  S
O129        H143   0.990       .  S
O129        H150   0.990   1_556  S
O130        C134   1.297       .  A
O131        C134   1.296       .  A
O132       Zr594   2.435       .  S
O132        H142   0.990       .  S
O133       Zr594   2.436       .  S
O133        H146   0.990       .  S
C134        C569   1.506       .  S
C157        C158   1.546       .  S
C157        C163   1.547       .  S
C157        C161   1.533       .  S
C157        C429   1.540       .  S
C158       H1141   1.082       .  S
C158        C647   1.360       .  D
C159       C1095   1.476   1_556  S
C159        C160   1.539       .  S
C159        C646   1.361       .  D
C160        C164   1.537       .  S
C160        C162   1.548       .  S
C160        H166   1.111   1_556  S
C161        H167   1.087   1_655  S
C161        C650   1.362       .  D
C162        C783   1.480   1_656  S
C162        C649   1.362       .  D
C163        H168   1.086       .  S
C163        C652   1.372       .  D
C164        C651   1.373       .  D
H165       C2110   1.081   1_545  S
C169        C170   1.508       .  S
C169        C175   1.545       .  S
C169        C173   1.516       .  S
C169        C438   1.537       .  S
C170        H177   1.089       .  S
C170        C171   1.348       .  D
C171        C172   1.593       .  S
C172        C176   1.559       .  S
C172        C174   1.566       .  S
C172        H178   1.110       .  S
C173        H179   1.087       .  S
C173        C174   1.374       .  D
C175       H1156   1.078       .  S
C175        C176   1.374       .  D
C176       C1103   1.494       .  S
H180       C2127   1.079   1_545  S
Zr181       O182   2.436   1_545  S
Zr181       O184   2.454       .  S
Zr181      O2135   2.443   1_545  S
Zr181      O2139   2.403   1_545  S
Zr181       O189   2.367       .  S
Zr181       O190   2.389       .  S
Zr181       O191   2.403       .  S
Zr181       O192   2.403       .  S
O182        H246   0.991       .  S
O182       H2190   0.990       .  S
O183      Zr1157   2.441       .  S
O183        C203   1.282       .  A
O184        C205   1.284       .  A
O185      Zr1171   2.542       .  S
O185        C204   1.304       .  A
O186       Zr194   2.398       .  S
O186        C205   1.275       .  A
O187      Zr1157   2.404       .  S
O187        C204   1.281       .  A
O188       Zr196   2.394       .  S
O188       C2155   1.277   1_545  A
O189       Zr194   2.393       .  S
O189       Zr196   2.382       .  S
O190       Zr195   2.401       .  S
O190       Zr196   2.384       .  S
O190        H225   0.966       .  S
O191       Zr194   2.388       .  S
O191       Zr211   2.420       .  S
O191        H228   0.963       .  S
O192       Zr195   2.383       .  S
O192       Zr211   2.365       .  S
Zr193       O218   2.437       .  S
Zr193       O212   2.492       .  S
Zr193       O220   2.485       .  S
Zr193       O208   2.485       .  S
Zr193       O199   2.410       .  S
Zr193       O200   2.434       .  S
Zr193       O201   2.393       .  S
Zr193       O202   2.433       .  S
Zr194       O213   2.436       .  S
Zr194       O206   2.433       .  S
Zr194       O207   2.406       .  S
Zr194       O200   2.397       .  S
Zr194       O201   2.394       .  S
Zr195       O197   2.438       .  S
Zr195       O219   2.437   1_545  S
Zr195       O221   2.493       .  S
Zr195      O2137   2.538   1_545  S
Zr195       O199   2.391       .  S
Zr195       O202   2.420       .  S
Zr196       O222   2.436       .  S
Zr196       O223   2.438       .  S
Zr196       O198   2.438       .  S
Zr196       O199   2.370       .  S
Zr196       O200   2.375       .  S
O197        H234   0.990       .  S
O198        H229   0.990       .  S
O198        H243   0.990       .  S
O200        H226   0.964       .  S
O201       Zr211   2.394       .  S
O202       Zr211   2.399       .  S
O202        H227   0.967       .  S
C203       O1164   1.277       .  A
C203        C254   1.476       .  S
C204        C264   1.519       .  S
O206        H242   0.990       .  S
O207        C209   1.271       .  A
O208        C209   1.293       .  A
C209        C249   1.483       .  S
O210       Zr211   2.439       .  S
O210        H239   0.991       .  S
Zr211       O214   2.448       .  S
Zr211       O215   2.453       .  S
Zr211       O216   2.421       .  S
O212        C217   1.285       .  A
O213        H230   0.990       .  S
O213        H245   0.990       .  S
O214        H231   0.991       .  S
O215        H235   0.990       .  S
O215        H244   0.990       .  S
O216        C217   1.266       .  A
C217        C266   1.488       .  S
O218        H237   0.990       .  S
O218        H241   0.991       .  S
O219        H233   0.990       .  S
O219       H2192   0.990       .  S
O220        C224   1.294       .  A
O221        C224   1.300       .  A
O222        H232   0.990       .  S
O223        H236   0.990       .  S
C224        C351   1.503       .  S
H238       O1158   0.990       .  S
H240       O1195   0.990       .  S
C247        C248   1.541       .  S
C247        C253   1.552       .  S
C247        C251   1.536       .  S
C247        C397   1.546       .  S
C248        H255   1.086       .  S
C248        C249   1.364       .  D
C249        C250   1.543       .  S
C250        C254   1.530       .  S
C250        C252   1.548       .  S
C250        H256   1.111       .  S
C251        H257   1.086       .  S
C251        C252   1.364       .  D
C253        H258   1.078       .  S
C253        C254   1.367       .  D
C259        C260   1.521       .  S
C259        C265   1.519       .  S
C259        C263   1.534       .  S
C259        C406   1.545       .  S
C260        H267   1.089       .  S
C260        C261   1.349       .  D
C261        C314   1.503       .  S
C261        C262   1.590       .  S
C262        C266   1.563       .  S
C262        C264   1.564       .  S
C262        H268   1.110       .  S
C263        H269   1.081       .  S
C263        C264   1.387       .  D
C265        H270   1.082       .  S
C265        C266   1.362       .  D
Zr271       O272   2.445       .  S
Zr271       O274   2.478   1_545  S
Zr271       O277   2.459       .  S
Zr271       O761   2.415       .  S
Zr271      O2719   2.372   1_545  S
Zr271       O768   2.399       .  S
Zr271      O2233   2.409   1_545  S
Zr271      O2234   2.394   1_545  S
O272        H328   0.990       .  S
O272        H336   0.990       .  S
O273       Zr759   2.417       .  S
O273        C293   1.278       .  A
O274       C2247   1.291       .  A
O275      Zr2725   2.476   1_545  S
O275        C294   1.288       .  A
O276       Zr772   2.410       .  S
O276        C295   1.277       .  A
O277        C294   1.286       .  A
O278      Zr2238   2.404   1_545  S
O278        C293   1.278       .  A
O279       Zr284   2.391       .  S
O279       Zr286   2.371       .  S
O279      Zr1735   2.368       .  S
O280       Zr759   2.397       .  S
O280      Zr2237   2.410   1_545  S
O280      Zr2238   2.376   1_545  S
O280        H315   0.966       .  S
O281       Zr301   2.409       .  S
O281      Zr1247   2.413       .  S
O281       Zr772   2.405       .  S
O281        H318   0.966       .  S
O282       Zr301   2.352       .  S
O282      Zr1247   2.398       .  S
O282       Zr773   2.389       .  S
Zr283       O308   2.438       .  S
Zr283       O302   2.532       .  S
Zr283       O310   2.495       .  S
Zr283       O298   2.431       .  S
Zr283       O289   2.400       .  S
Zr283       O290   2.442       .  S
Zr283       O291   2.374       .  S
Zr283       O292   2.399       .  S
Zr284       O296   2.436       .  S
Zr284       O791   2.436   1_554  S
Zr284       O297   2.419       .  S
Zr284       O764   2.411       .  S
Zr284       O290   2.390       .  S
Zr284       O291   2.393       .  S
Zr284       O769   2.407   1_554  S
Zr285       O775   2.436       .  S
Zr285      O1285   2.438       .  S
Zr285       O311   2.491       .  S
Zr285      O1739   2.485       .  S
Zr285       O289   2.368       .  S
Zr285       O292   2.423       .  S
Zr285      O1256   2.414       .  S
Zr285       O770   2.390       .  S
Zr286       O313   2.436       .  S
Zr286       O288   2.439       .  S
Zr286      O1288   2.436       .  S
Zr286      O1254   2.402       .  S
Zr286       O289   2.378       .  S
Zr286       O290   2.376       .  S
Zr286      O1256   2.375       .  S
O287       Zr773   2.438       .  S
O287        H324   0.990       .  S
O288        H319   0.990       .  S
O288        H333   0.990       .  S
O290        H316   0.963       .  S
O291       Zr789   2.379   1_554  S
O292       Zr789   2.399   1_554  S
O292        H805   0.966       .  S
C293        C344   1.469       .  S
C294        C354   1.488       .  S
C295       O1250   1.292       .  A
C295        C650   1.483   1_455  S
O296        H332   0.990       .  S
O297        C299   1.277       .  A
O298        C299   1.285       .  A
C299        C339   1.458       .  S
O300       Zr301   2.436       .  S
O300        H329   0.990       .  S
Zr301       O304   2.434       .  S
Zr301       O305   2.439       .  S
Zr301       O306   2.399       .  S
Zr301       O779   2.380       .  S
Zr301       O780   2.395       .  S
O302        C795   1.301   1_554  A
O303       Zr772   2.438       .  S
O303        H320   0.990       .  S
O303        H335   0.990       .  S
O304        H321   0.989       .  S
O305        H325   0.990       .  S
O305        H334   0.990       .  S
O306        C307   1.273       .  A
C307        O790   1.299       .  A
C307        C356   1.495       .  S
O308        H327   0.990       .  S
O308        H331   0.990       .  S
O309      Zr2237   2.439   1_545  S
O309        H323   0.990       .  S
O309        H330   0.990       .  S
O310        C314   1.298       .  A
O311        C314   1.296       .  A
O312      Zr2238   2.434   1_545  S
O312        H322   0.990       .  S
O313        H326   0.990       .  S
H317        O780   0.967       .  S
C337        C338   1.537       .  S
C337        C343   1.533       .  S
C337        C341   1.546       .  S
C337        C365   1.532       .  S
C338        H345   1.081       .  S
C338        C339   1.362       .  D
C339        C340   1.523       .  S
C340        C344   1.531       .  S
C340        C342   1.540       .  S
C340        H346   1.112       .  S
C341        H347   1.085   1_455  S
C341        C342   1.368       .  D
C343        H348   1.087       .  S
C343        C344   1.359       .  D
C349        C350   1.521       .  S
C349        C355   1.543       .  S
C349        C353   1.519       .  S
C349        C374   1.536       .  S
C350        H357   1.088       .  S
C350        C351   1.356       .  D
C351        C352   1.589       .  S
C352        C356   1.553       .  S
C352        C354   1.560       .  S
C352        H358   1.110       .  S
C353        H359   1.084       .  S
C353        C354   1.366       .  D
C355        H360   1.078       .  S
C355        C356   1.367       .  D
C361        C362   1.392       .  A
C361        C366   1.393       .  A
C361        H371   1.086       .  S
C362        C363   1.402       .  A
C362        C367   1.474       .  S
C363        C368   1.505   1_455  S
C363        C364   1.408       .  A
C364        C365   1.419       .  A
C364        H369   1.080   1_455  S
C365        C366   1.433       .  A
C366        C370   1.515       .  S
C367        C372   1.411       .  A
C367        C376   1.398       .  A
C368        H384   1.110       .  S
C368        H385   1.111       .  S
C368        H386   1.110       .  S
C370        H381   1.111       .  S
C370        H382   1.106       .  S
C370        H383   1.109       .  S
C372        C377   1.509       .  S
C372        C373   1.398       .  A
C373        C374   1.408       .  A
C373        H378   1.084       .  S
C374        C375   1.421       .  A
C375        C379   1.502       .  S
C375        C376   1.403       .  A
C376        H380   1.084       .  S
C377        H387   1.111       .  S
C377        H388   1.109       .  S
C377        H389   1.111       .  S
C379        H390   1.108       .  S
C379        H391   1.108       .  S
C379        H392   1.111       .  S
C393        C394   1.399       .  A
C393        C398   1.408       .  A
C393        H891   1.083       .  S
C394        C395   1.410       .  A
C394        C887   1.486       .  S
C395        C400   1.513       .  S
C395        C396   1.398       .  A
C396        C397   1.413       .  A
C396        H401   1.071       .  S
C397        C398   1.430       .  A
C398        C402   1.513       .  S
C399        C404   1.412       .  A
C399        C408   1.405       .  A
C399        C882   1.490       .  S
C400        H416   1.109       .  S
C400        H417   1.111       .  S
C400        H418   1.111       .  S
C402        H413   1.107       .  S
C402        H414   1.111       .  S
C402        H415   1.107       .  S
H403        C881   1.083       .  S
C404        C409   1.509       .  S
C404        C405   1.399       .  A
C405        C406   1.411       .  A
C405        H410   1.084       .  S
C406        C407   1.420       .  A
C407        C411   1.501       .  S
C407        C408   1.409       .  A
C408        H412   1.084       .  S
C409        H419   1.111       .  S
C409        H420   1.109       .  S
C409        H421   1.110       .  S
C411        H423   1.108       .  S
C411        H424   1.111       .  S
C411       H1398   1.108       .  S
H422       C2363   1.108       .  S
C425        C426   1.401       .  A
C425        C430   1.406       .  A
C425        H435   1.085       .  S
C426        C427   1.410       .  A
C426        C431   1.477       .  S
C427       C1408   1.511       .  S
C427        C428   1.398       .  A
C428        C429   1.411       .  A
C428        H433   1.078       .  S
C429        C430   1.426       .  A
C430        C434   1.509   1_655  S
C431        C436   1.407       .  A
C431        C440   1.393       .  A
C432       C2379   1.511   1_545  S
C432        H449   1.107       .  S
C432        H450   1.110       .  S
C432       H2400   1.110       .  S
C434        H445   1.111       .  S
C434        H446   1.111       .  S
C434        H447   1.105       .  S
C436       C1417   1.507       .  S
C436        C437   1.408       .  A
C437        C438   1.415       .  A
C437        H442   1.077       .  S
C438        C439   1.433       .  A
C439        C443   1.515       .  S
C439        C440   1.394       .  A
C440        H444   1.086       .  S
C441       C2388   1.508   1_545  S
C441        H451   1.111       .  S
C441        H453   1.107       .  S
C441       H2404   1.111   1_545  S
C443        H454   1.110       .  S
C443        H455   1.100       .  S
C443        H456   1.109       .  S
H448       C1408   1.110       .  S
H452       C1417   1.110       .  S
C457        C458   1.398       .  A
C457        C462   1.403       .  A
C457        H467   1.084       .  S
C458        C459   1.412       .  A
C458        C463   1.478       .  S
C459        C464   1.511       .  S
C459        C460   1.401       .  A
C460        C461   1.409       .  A
C460        H465   1.077       .  S
C461        C462   1.431       .  A
C462        C466   1.512       .  S
C463        C468   1.405   1_554  A
C463        C472   1.395       .  A
C464        H480   1.110       .  S
C464        H481   1.107       .  S
C464        H482   1.111       .  S
C466        H477   1.111       .  S
C466        H478   1.111       .  S
C466        H479   1.103       .  S
C468        C473   1.507       .  S
C468        C469   1.407       .  A
C469        C958   1.417       .  A
C469        H962   1.077       .  S
C470        C957   1.417       .  A
C470        C959   1.429       .  A
C471        C475   1.514       .  S
C471        C472   1.395   1_556  A
C471        C958   1.430       .  A
C472        H476   1.086       .  S
C473        H483   1.111       .  S
C473        H484   1.110       .  S
C473        H485   1.107       .  S
H474        C957   1.077       .  S
C475        H486   1.111       .  S
C475        H488   1.110   1_556  S
C475        H975   1.101       .  S
H487        C963   1.101       .  S
Zr489       O490   2.444       .  S
Zr489       O491   2.435       .  S
Zr489       O492   2.469       .  S
Zr489       O495   2.452       .  S
Zr489       O497   2.376       .  S
Zr489       O498   2.392       .  S
Zr489       O499   2.412       .  S
Zr489       O500   2.394       .  S
O490        H546   0.990       .  S
O490        H554   0.990       .  S
O491        C511   1.282       .  A
O492        C513   1.289       .  A
O493       Zr503   2.498       .  S
O493        C512   1.294       .  A
O494       Zr502   2.416       .  S
O494        C513   1.279       .  A
O495        C512   1.289       .  A
O496       Zr504   2.402       .  S
O496        C511   1.277       .  A
O497       Zr502   2.399       .  S
O497       Zr504   2.376       .  S
O498       Zr503   2.413       .  S
O498       Zr504   2.380       .  S
O498        H533   0.965       .  S
O499       Zr502   2.399       .  S
O499       Zr519   2.404       .  S
O499        H536   0.967       .  S
O500       Zr503   2.378       .  S
O500       Zr519   2.360       .  S
Zr501       O526   2.437       .  S
Zr501      O1496   2.528       .  S
Zr501       O528   2.499       .  S
Zr501      O1492   2.438       .  S
Zr501       O507   2.401       .  S
Zr501       O508   2.446       .  S
Zr501       O509   2.379       .  S
Zr501       O510   2.402       .  S
Zr502       O521   2.436       .  S
Zr502       O514   2.436       .  S
Zr502      O1491   2.429       .  S
Zr502       O508   2.397       .  S
Zr502       O509   2.389       .  S
Zr503       O505   2.436       .  S
Zr503       O527   2.438       .  S
Zr503       O529   2.480       .  S
Zr503       O507   2.374       .  S
Zr503       O510   2.416       .  S
Zr504       O530   2.436       .  S
Zr504       O531   2.436       .  S
Zr504       O506   2.438       .  S
Zr504       O507   2.377       .  S
Zr504       O508   2.381       .  S
O505        H542   0.990       .  S
O506        H537   0.990       .  S
O506        H551   0.990       .  S
O508        H534   0.965       .  S
O509       Zr519   2.379       .  S
O510       Zr519   2.393       .  S
O510        H535   0.966       .  S
C511        C562   1.475       .  S
C512        C572   1.505       .  S
C513        C740   1.480       .  S
O514        H550   0.990       .  S
O515      Zr2454   2.426   1_545  S
O515        C517   1.278       .  A
O516      Zr2453   2.448   1_545  S
O516        C517   1.288       .  A
C517        C557   1.466       .  S
O518       Zr519   2.435       .  S
O518        H547   0.990       .  S
Zr519       O522   2.435       .  S
Zr519       O523   2.438       .  S
Zr519       O524   2.402       .  S
O520      Zr2453   2.517   1_545  S
O520        C525   1.296       .  A
O521        H538   0.990       .  S
O521        H553   0.990       .  S
O522        H539   0.990       .  S
O523        H543   0.990       .  S
O523        H552   0.990       .  S
O524       C1501   1.271       .  A
C525       O2476   1.272       .  A
C525        C574   1.493       .  S
O526        H545   0.990       .  S
O526        H549   0.990       .  S
O527        H541   0.990       .  S
O527        H548   0.990       .  S
O528        C532   1.298       .  A
O529        C532   1.296       .  A
O530        H540   0.990       .  S
O531        H544   0.990       .  S
C532        C659   1.502       .  S
C555        C556   1.554       .  S
C555        C561   1.541       .  S
C555        C559   1.527       .  S
C555        C949   1.534       .  S
C556        H563   1.082       .  S
C556        C557   1.368       .  D
C557        C558   1.527       .  S
C558        C562   1.531       .  S
C558        C560   1.536       .  S
C558        H564   1.111       .  S
C559        H565   1.087       .  S
C559        C560   1.358       .  D
C560        C693   1.459       .  S
C561        H566   1.086       .  S
C561        C562   1.367       .  D
C567        C568   1.515       .  S
C567        C573   1.544       .  S
C567        C571   1.520       .  S
C567        C958   1.538       .  S
C568        C569   1.352       .  D
C569        C570   1.593       .  S
C570        C574   1.556       .  S
C570        C572   1.569       .  S
C570        H576   1.110       .  S
C571        H577   1.085       .  S
C571        C572   1.369       .  D
C573        H578   1.078       .  S
C573        C574   1.370       .  D
Zr579       O580   2.441       .  S
Zr579       O581   2.446       .  S
Zr579       O582   2.475       .  S
Zr579       O585   2.414       .  S
Zr579       O587   2.367       .  S
Zr579       O588   2.396       .  S
Zr579       O589   2.410       .  S
Zr579       O590   2.392       .  S
O580        H636   0.989       .  S
O580        H644   0.990       .  S
O581        C601   1.284       .  A
O582        C603   1.289       .  A
O583       Zr593   2.524       .  S
O583        C602   1.297       .  A
O584       Zr592   2.394       .  S
O584        C603   1.275       .  A
O585        C602   1.284       .  A
O586       Zr594   2.418       .  S
O586        C601   1.281       .  A
O587       Zr592   2.393       .  S
O587       Zr594   2.379       .  S
O588       Zr593   2.414       .  S
O588       Zr594   2.382       .  S
O588        H623   0.966       .  S
O589       Zr592   2.397       .  S
O589       Zr609   2.409       .  S
O589        H626   0.965       .  S
O590       Zr593   2.374       .  S
O590       Zr609   2.351       .  S
Zr591       O610   2.514       .  S
Zr591       O618   2.488       .  S
Zr591       O606   2.445       .  S
Zr591       O597   2.411       .  S
Zr591       O598   2.442       .  S
Zr591       O599   2.381       .  S
Zr591       O600   2.410       .  S
Zr592       O611   2.437       .  S
Zr592       O604   2.435       .  S
Zr592       O605   2.415       .  S
Zr592       O598   2.395       .  S
Zr592       O599   2.388       .  S
Zr593       O595   2.435       .  S
Zr593       O617   2.437       .  S
Zr593       O619   2.486       .  S
Zr593       O597   2.384       .  S
Zr593       O600   2.419       .  S
Zr594       O597   2.386       .  S
Zr594       O598   2.386       .  S
O595        H632   0.990       .  S
O596        H627   0.990       .  S
O596        H641   0.990       .  S
O598        H624   0.962       .  S
O599       Zr609   2.384       .  S
O600       Zr609   2.393       .  S
O600        H625   0.965       .  S
C601        C652   1.485       .  S
C602        C662   1.516       .  S
C603        C830   1.472   1_655  S
O604        H640   0.990       .  S
O605        C607   1.272   1_545  A
O606        C607   1.286   1_545  A
C607       C2599   1.472       .  S
O608       Zr609   2.437       .  S
O608        H637   0.990       .  S
Zr609       O612   2.434       .  S
Zr609       O613   2.442       .  S
Zr609       O614   2.403       .  S
O610        C615   1.294       .  A
O611        H628   0.990       .  S
O611        H643   0.990       .  S
O612        H629   0.991       .  S
O613        H633   0.989       .  S
O613        H642   0.990       .  S
O614        C615   1.270       .  A
C615       C2616   1.490   1_545  S
O616        H635   0.990   1_545  S
O616        H639   0.991   1_556  S
O617        H631   0.990       .  S
O617        H638   0.990       .  S
O618        C622   1.296       .  A
O619        C622   1.298       .  A
O620        H630   0.990       .  S
O621        H634   0.990       .  S
C645        C646   1.547       .  S
C645        C651   1.549       .  S
C645        C649   1.532       .  S
C645        C917   1.543       .  S
C646       H1629   1.082       .  S
C647       C1583   1.477       .  S
C647        C648   1.541       .  S
C648        C652   1.539       .  S
C648        C650   1.551       .  S
C648        H654   1.111       .  S
C649        H655   1.087   1_655  S
C651        H656   1.086       .  S
H653       C2598   1.082   1_545  S
C657        C658   1.510       .  S
C657        C663   1.540       .  S
C657        C661   1.512       .  S
C657        C926   1.540       .  S
C658        H665   1.089       .  S
C658        C659   1.350       .  D
C659        C660   1.594       .  S
C660        C664   1.563       .  S
C660        C662   1.570       .  S
C660        H666   1.110       .  S
C661        H667   1.086       .  S
C661        C662   1.375       .  D
C663       H1644   1.078       .  S
C663        C664   1.373       .  D
C664       C1591   1.496       .  S
H668       C2615   1.078   1_545  S
Zr669       O670   2.436   1_545  S
Zr669      O2623   2.447   1_545  S
Zr669       O672   2.445       .  S
Zr669      O2627   2.395   1_545  S
Zr669       O677   2.362       .  S
Zr669       O678   2.391       .  S
Zr669       O679   2.413       .  S
Zr669       O680   2.401       .  S
O670       H2678   0.990       .  S
O670        H734   0.990       .  S
O671      Zr1645   2.448       .  S
O671        C691   1.284       .  A
O672        C693   1.283       .  A
O673      Zr1659   2.555       .  S
O673        C692   1.306       .  A
O674       Zr682   2.394       .  S
O674        C693   1.273       .  A
O675      Zr1645   2.402       .  S
O675        C692   1.280       .  A
O676       Zr684   2.391       .  S
O676       C2643   1.276   1_545  A
O677       Zr682   2.392       .  S
O677       Zr684   2.374       .  S
O678       Zr683   2.407       .  S
O678       Zr684   2.384       .  S
O678        H713   0.966       .  S
O679       Zr682   2.394       .  S
O679       Zr699   2.418       .  S
O679        H716   0.962       .  S
O680       Zr683   2.378       .  S
O680       Zr699   2.363       .  S
Zr681       O706   2.438       .  S
Zr681       O700   2.489       .  S
Zr681       O708   2.486       .  S
Zr681       O696   2.471       .  S
Zr681       O687   2.410       .  S
Zr681       O688   2.437       .  S
Zr681       O689   2.395       .  S
Zr681       O690   2.430       .  S
Zr682       O701   2.438       .  S
Zr682       O694   2.436       .  S
Zr682       O695   2.408       .  S
Zr682       O688   2.397       .  S
Zr682       O689   2.392       .  S
Zr683       O685   2.436       .  S
Zr683       O707   2.437   1_545  S
Zr683      O2625   2.555   1_545  S
Zr683       O709   2.496       .  S
Zr683       O687   2.398       .  S
Zr683       O690   2.419       .  S
Zr684       O710   2.433       .  S
Zr684       O711   2.434       .  S
Zr684       O686   2.441       .  S
Zr684       O687   2.378       .  S
Zr684       O688   2.373       .  S
O685        H722   0.990       .  S
O686        H717   0.990       .  S
O686        H731   0.990       .  S
O688        H714   0.965       .  S
O689       Zr699   2.393       .  S
O690       Zr699   2.401       .  S
O690        H715   0.967       .  S
C691       O1652   1.276       .  A
C691        C742   1.477       .  S
C692        C752   1.521       .  S
O694        H730   0.990       .  S
O695        C697   1.272       .  A
O696        C697   1.290       .  A
C697        C737   1.478       .  S
O698       Zr699   2.436       .  S
O698        H727   0.991       .  S
Zr699       O702   2.447       .  S
Zr699       O703   2.447       .  S
Zr699       O704   2.423       .  S
O700        C705   1.285       .  A
O701        H718   0.990       .  S
O701        H733   0.990       .  S
O702        H719   0.991       .  S
O703        H723   0.989       .  S
O703        H732   0.990       .  S
O704        C705   1.268       .  A
C705        C754   1.486       .  S
O706        H725   0.990       .  S
O706        H729   0.990       .  S
O707        H721   0.990       .  S
O707       H2680   0.990       .  S
O708        C712   1.294       .  A
O709        C712   1.300       .  A
O710        H720   0.990       .  S
O711        H724   0.990       .  S
C712        C839   1.510       .  S
H726       O1646   0.990       .  S
H728       O1683   0.990       .  S
C735        C736   1.541       .  S
C735        C741   1.553       .  S
C735        C739   1.538       .  S
C735        C885   1.552       .  S
C736        H743   1.086       .  S
C736        C737   1.365       .  D
C737        C738   1.539       .  S
C738        C742   1.527       .  S
C738        C740   1.545       .  S
C738        H744   1.111       .  S
C739        H745   1.086       .  S
C739        C740   1.366       .  D
C741        H746   1.077       .  S
C741        C742   1.369       .  D
C747        C748   1.522       .  S
C747        C753   1.516       .  S
C747        C751   1.535       .  S
C747        C894   1.543       .  S
C748        H755   1.089       .  S
C748        C749   1.349       .  D
C749        C802   1.498       .  S
C749        C750   1.587       .  S
C750        C754   1.562       .  S
C750        C752   1.565       .  S
C750        H756   1.110       .  S
C751        H757   1.081       .  S
C751        C752   1.389       .  D
C753        H758   1.081       .  S
C753        C754   1.360       .  D
Zr759       O760   2.448   1_554  S
Zr759       O762   2.469   1_544  S
Zr759       O765   2.461       .  S
Zr759      O2231   2.377   1_545  S
Zr759      O2721   2.416   1_544  S
Zr759      O2722   2.393   1_545  S
O760        H816   0.990   1_556  S
O760        H824   0.990       .  S
O761        C781   1.277       .  A
O762       C2735   1.288   1_556  A
O763      Zr2237   2.486   1_545  S
O763        C782   1.290   1_554  A
O764        C783   1.276       .  A
O765        C782   1.287   1_554  A
O766      Zr2726   2.412   1_545  S
O766        C781   1.280       .  A
O767      Zr1247   2.369       .  S
O767       Zr772   2.398       .  S
O767       Zr774   2.373       .  S
O768      Zr2725   2.415   1_545  S
O768      Zr2726   2.376   1_545  S
O768        H803   0.966       .  S
O769      Zr1735   2.415   1_556  S
O769       Zr789   2.413       .  S
O769        H806   0.966       .  S
O770      Zr1735   2.397       .  S
O770       Zr789   2.351   1_554  S
Zr771       O796   2.437       .  S
Zr771       O790   2.522       .  S
Zr771       O798   2.490       .  S
Zr771       O786   2.438       .  S
Zr771       O777   2.395       .  S
Zr771       O778   2.437       .  S
Zr771       O779   2.375       .  S
Zr771       O780   2.398       .  S
Zr772       O784   2.435       .  S
Zr772       O785   2.422       .  S
Zr772       O778   2.395       .  S
Zr772       O779   2.389       .  S
Zr773      O1773   2.436       .  S
Zr773      O1251   2.482       .  S
Zr773       O799   2.483       .  S
Zr773      O1744   2.418       .  S
Zr773       O777   2.369       .  S
Zr773       O780   2.416       .  S
Zr774      O1776   2.436       .  S
Zr774       O801   2.435       .  S
Zr774       O776   2.438       .  S
Zr774      O1742   2.410       .  S
Zr774      O1744   2.374       .  S
Zr774       O777   2.378       .  S
Zr774       O778   2.386       .  S
O775        H812   0.990       .  S
O776        H807   0.990       .  S
O776        H821   0.990       .  S
O778        H804   0.964       .  S
C781        C832   1.471       .  S
C782        C842   1.494       .  S
C783       O1738   1.290   1_554  A
O784        H820   0.990       .  S
O785        C787   1.278       .  A
O786        C787   1.287       .  A
C787        C827   1.461       .  S
O788       Zr789   2.439       .  S
O788        H817   0.990       .  S
Zr789       O792   2.435       .  S
Zr789       O793   2.440       .  S
Zr789       O794   2.402       .  S
O791        H808   0.990   1_556  S
O791        H823   0.990       .  S
O792        H809   0.989       .  S
O793        H813   0.990       .  S
O793        H822   0.990       .  S
O794        C795   1.274       .  A
C795        C844   1.503       .  S
O796        H815   0.990       .  S
O796        H819   0.991       .  S
O797      Zr2725   2.437   1_545  S
O797        H811   0.990       .  S
O797        H818   0.990       .  S
O798        C802   1.296       .  A
O799        C802   1.296       .  A
O800      Zr2726   2.436   1_545  S
O800        H810   0.990   1_545  S
O801        H814   0.990       .  S
C825        C826   1.539       .  S
C825        C831   1.534       .  S
C825        C829   1.550       .  S
C825        C853   1.534       .  S
C826        H833   1.083       .  S
C826        C827   1.363       .  D
C827        C828   1.525       .  S
C828        C832   1.533       .  S
C828        C830   1.541       .  S
C828        H834   1.111       .  S
C829        H835   1.084   1_455  S
C829        C830   1.371       .  D
C831        H836   1.087       .  S
C831        C832   1.358       .  D
C837        C838   1.522       .  S
C837        C843   1.544       .  S
C837        C841   1.518       .  S
C837        C862   1.540       .  S
C838        H845   1.088       .  S
C838        C839   1.360       .  D
C839        C840   1.595       .  S
C840        C844   1.556       .  S
C840        C842   1.564       .  S
C840        H846   1.110       .  S
C841        H847   1.083       .  S
C841        C842   1.365       .  D
C843        H848   1.077       .  S
C843        C844   1.366       .  D
C849        C850   1.394       .  A
C849        C854   1.393       .  A
C849        H859   1.086       .  S
C850        C851   1.405       .  A
C850        C855   1.478       .  S
C851        C856   1.505   1_455  S
C851        C852   1.410       .  A
C852        C853   1.418       .  A
C852        H857   1.079   1_455  S
C853        C854   1.432       .  A
C854        C858   1.517       .  S
C855        C860   1.411       .  A
C855        C864   1.398       .  A
C856        H872   1.110       .  S
C856        H873   1.111       .  S
C856        H874   1.111       .  S
C858        H869   1.111       .  S
C858        H870   1.106       .  S
C858        H871   1.108       .  S
C860        C865   1.508       .  S
C860        C861   1.400       .  A
C861        C862   1.409       .  A
C861        H866   1.084       .  S
C862        C863   1.423       .  A
C863        C867   1.502       .  S
C863        C864   1.404       .  A
C864        H868   1.084       .  S
C865        H875   1.111       .  S
C865        H876   1.109       .  S
C865        H877   1.111       .  S
C867        H878   1.109       .  S
C867        H879   1.109       .  S
C867        H880   1.111       .  S
C881        C882   1.401       .  A
C881        C886   1.411   1_554  A
C882        C883   1.409       .  A
C883        C888   1.512       .  S
C883        C884   1.400   1_554  A
C884        C885   1.414       .  A
C884        H889   1.071       .  S
C885        C886   1.431       .  A
C886        C890   1.513       .  S
C887        C892   1.412       .  A
C887        C896   1.403       .  A
C888        H904   1.109       .  S
C888        H905   1.111       .  S
C888        H906   1.111       .  S
C890        H901   1.107       .  S
C890        H902   1.111       .  S
C890        H903   1.107       .  S
C892        C897   1.510       .  S
C892        C893   1.398       .  A
C893        C894   1.412       .  A
C893        H898   1.084       .  S
C894        C895   1.419       .  A
C895        C899   1.500       .  S
C895        C896   1.406       .  A
C896        H900   1.084       .  S
C897        H907   1.111       .  S
C897        H908   1.109       .  S
C897        H909   1.111       .  S
C899       H1886   1.107       .  S
C899        H911   1.109       .  S
C899        H912   1.111       .  S
H910       C2851   1.108       .  S
C913        C914   1.402       .  A
C913        C918   1.407       .  A
C913        H923   1.085       .  S
C914        C915   1.412       .  A
C914        C919   1.482       .  S
C915       C1896   1.511       .  S
C915        C916   1.400       .  A
C916        C917   1.411       .  A
C916        H921   1.078       .  S
C917        C918   1.426       .  A
C918        C922   1.509   1_655  S
C919        C924   1.409       .  A
C919        C928   1.394       .  A
C920       C2867   1.512       .  S
C920       H2888   1.110       .  S
C920        H937   1.105       .  S
C920        H938   1.111       .  S
C922        H933   1.111       .  S
C922        H934   1.111       .  S
C922        H935   1.105       .  S
C924       C1905   1.508       .  S
C924        C925   1.411       .  A
C925        C926   1.417       .  A
C925        H930   1.077       .  S
C926        C927   1.432       .  A
C927        C931   1.516       .  S
C927        C928   1.394       .  A
C928        H932   1.086       .  S
C929       C2876   1.509   1_545  S
C929        H939   1.111       .  S
C929       H2892   1.110       .  S
C929        H941   1.106       .  S
C931        H942   1.111       .  S
C931        H943   1.100       .  S
C931        H944   1.110       .  S
H936       C1896   1.110       .  S
H940       C1905   1.110       .  S
C945        C946   1.397       .  A
C945        C950   1.402       .  A
C945        H955   1.084       .  S
C946        C947   1.411       .  A
C946        C951   1.474       .  S
C947        C952   1.510       .  S
C947        C948   1.399       .  A
C948        C949   1.408       .  A
C948        H953   1.077       .  S
C949        C950   1.430       .  A
C950        C954   1.512       .  S
C951        C956   1.404       .  A
C951        C960   1.395       .  A
C952        H968   1.110       .  S
C952        H969   1.107       .  S
C952        H970   1.111       .  S
C954        H965   1.111       .  S
C954        H966   1.111       .  S
C954        H967   1.104       .  S
C956        C961   1.507       .  S
C956        C957   1.406       .  A
C959        C963   1.514       .  S
C959        C960   1.395       .  A
C960        H964   1.086       .  S
C961        H971   1.111       .  S
C961        H972   1.110       .  S
C961        H973   1.107       .  S
C963        H974   1.111       .  S
C963        H976   1.110       .  S
Zr977       O978   2.443       .  S
Zr977       O979   2.427       .  S
Zr977       O980   2.473       .  S
Zr977       O983   2.460       .  S
Zr977       O985   2.375       .  S
Zr977       O986   2.393       .  S
Zr977       O987   2.407       .  S
Zr977       O988   2.386       .  S
O978       H1034   0.990       .  S
O978       H1042   0.990       .  S
O979        C999   1.281       .  A
O980       C1001   1.290       .  A
O981       Zr991   2.490       .  S
O981       C1000   1.292       .  A
O982       Zr990   2.411       .  S
O982       C1001   1.279       .  A
O983       C1000   1.291       .  A
O984       Zr992   2.392       .  S
O984        C999   1.276       .  A
O985       Zr990   2.395       .  S
O985       Zr992   2.374       .  S
O986       Zr991   2.406       .  S
O986       Zr992   2.377       .  S
O986       H1021   0.966       .  S
O987       Zr990   2.402       .  S
O987      Zr1007   2.403       .  S
O987       H1024   0.966       .  S
O988       Zr991   2.380       .  S
O988      Zr1007   2.351       .  S
Zr989      O1014   2.437       .  S
Zr989      O1984   2.526       .  S
Zr989      O1016   2.503       .  S
Zr989      O1980   2.452       .  S
Zr989       O995   2.407       .  S
Zr989       O996   2.442       .  S
Zr989       O997   2.380       .  S
Zr989       O998   2.406       .  S
Zr990      O1009   2.437       .  S
Zr990      O1002   2.437       .  S
Zr990      O1979   2.424       .  S
Zr990       O996   2.393       .  S
Zr990       O997   2.390       .  S
Zr991       O993   2.431       .  S
Zr991      O1015   2.439       .  S
Zr991      O1017   2.473       .  S
Zr991       O995   2.378       .  S
Zr991       O998   2.417       .  S
Zr992      O1018   2.434       .  S
Zr992      O1019   2.436       .  S
Zr992       O994   2.442       .  S
Zr992       O995   2.381       .  S
Zr992       O996   2.376       .  S
O993       H1030   0.990       .  S
O994       H1025   0.990       .  S
O994       H1039   0.991       .  S
O996       H1022   0.965       .  S
O997      Zr1007   2.383       .  S
O998      Zr1007   2.398       .  S
O998       H1023   0.966       .  S
C999       C1050   1.467       .  S
C1000      C1060   1.502       .  S
C1001      C1228   1.479       .  S
O1002      H1038   0.990       .  S
O1003      C1005   1.277       .  A
O1004      C1005   1.287       .  A
C1005      C1045   1.464       .  S
O1006     Zr1007   2.437       .  S
O1006      H1035   0.990       .  S
Zr1007     O1010   2.435       .  S
Zr1007     O1011   2.438       .  S
Zr1007     O1012   2.403       .  S
O1008      C1013   1.298       .  A
O1009      H1026   0.990       .  S
O1009      H1041   0.990       .  S
O1010      H1027   0.991       .  S
O1011      H1031   0.990       .  S
O1011      H1040   0.990       .  S
O1012      C1989   1.271       .  A
C1013      C1062   1.497       .  S
O1014      H1033   0.990       .  S
O1014      H1037   0.990       .  S
O1015      H1029   0.990       .  S
O1015      H1036   0.990       .  S
O1016      C1020   1.299       .  A
O1017      C1020   1.294       .  A
O1018      H1028   0.990       .  S
O1019      H1032   0.990       .  S
C1020      C1147   1.503       .  S
C1043      C1044   1.555       .  S
C1043      C1049   1.537       .  S
C1043      C1047   1.531       .  S
C1043      C1437   1.534       .  S
C1044      H1051   1.082       .  S
C1044      C1045   1.368       .  D
C1045      C1046   1.528       .  S
C1046      C1050   1.528       .  S
C1046      C1048   1.534       .  S
C1046      H1052   1.111       .  S
C1047      H1053   1.087       .  S
C1047      C1048   1.362       .  D
C1048      C1181   1.465       .  S
C1049      H1054   1.087       .  S
C1049      C1050   1.364       .  D
C1055      C1056   1.515       .  S
C1055      C1061   1.547       .  S
C1055      C1059   1.519       .  S
C1055      C1446   1.538       .  S
C1056      H1551   1.088       .  S
C1056      C1057   1.352       .  D
C1057      C1598   1.508       .  S
C1057      C1058   1.594       .  S
C1058      C1062   1.557       .  S
C1058      C1060   1.568       .  S
C1058      H1064   1.110       .  S
C1059      H1065   1.085       .  S
C1059      C1060   1.369       .  D
C1061      H1066   1.078       .  S
C1061      C1062   1.369       .  D
H1063      C1544   1.088       .  S
Zr1067     O1068   2.444       .  S
Zr1067     O1069   2.441       .  S
Zr1067     O1070   2.472       .  S
Zr1067     O1073   2.417       .  S
Zr1067     O1075   2.369       .  S
Zr1067     O1076   2.396       .  S
Zr1067     O1077   2.409       .  S
Zr1067     O1078   2.391       .  S
O1068      H1124   0.990       .  S
O1068      H1132   0.990       .  S
O1069      C1089   1.283   1_554  A
O1070      C1091   1.289       .  A
O1071     Zr1081   2.525       .  S
O1071      C1090   1.297       .  A
O1072     Zr1080   2.394       .  S
O1072      C1091   1.276       .  A
O1073      C1090   1.286       .  A
O1074     Zr1082   2.419       .  S
O1074      C1089   1.280       .  A
O1075     Zr1080   2.398       .  S
O1075     Zr1082   2.379   1_554  S
O1076     Zr1081   2.417       .  S
O1076     Zr1082   2.382   1_554  S
O1076      H1111   0.966       .  S
O1077     Zr1080   2.401       .  S
O1077     Zr1097   2.408       .  S
O1077      H1114   0.965       .  S
O1078     Zr1081   2.378       .  S
O1078     Zr1097   2.354       .  S
Zr1079     O1592   2.436   1_554  S
Zr1079     O1098   2.522       .  S
Zr1079     O1106   2.500   1_554  S
Zr1079     O1094   2.453   1_554  S
Zr1079     O1085   2.411   1_554  S
Zr1079     O1086   2.445   1_554  S
Zr1079     O1087   2.382       .  S
Zr1079     O1088   2.412       .  S
Zr1080     O1099   2.439       .  S
Zr1080     O1092   2.435       .  S
Zr1080     O1093   2.418       .  S
Zr1080     O1086   2.399   1_554  S
Zr1080     O1087   2.386       .  S
Zr1081     O1083   2.436       .  S
Zr1081     O1105   2.437   1_554  S
Zr1081     O1107   2.493   1_554  S
Zr1081     O1085   2.383   1_554  S
Zr1081     O1088   2.421       .  S
Zr1082     O1596   2.436       .  S
Zr1082     O1597   2.438       .  S
Zr1082     O1572   2.439       .  S
Zr1082     O1085   2.387       .  S
Zr1082     O1086   2.389       .  S
O1083      H1120   0.990       .  S
O1084     Zr1570   2.440       .  S
O1084      H1115   0.990       .  S
O1084      H1129   0.990       .  S
O1086      H1112   0.962       .  S
O1087     Zr1097   2.379       .  S
O1088     Zr1097   2.392       .  S
O1088      H1113   0.967       .  S
C1089      C1140   1.483       .  S
C1090      C1150   1.517       .  S
C1091      C1318   1.468   1_655  S
O1092      H1128   0.990       .  S
O1093      C1095   1.271       .  A
O1094      C1095   1.288   1_556  A
O1096     Zr1097   2.437       .  S
O1096      H1125   0.990       .  S
Zr1097     O1100   2.435       .  S
Zr1097     O1101   2.439       .  S
Zr1097     O1102   2.404       .  S
O1098      C1103   1.297       .  A
O1099      H1116   0.990       .  S
O1099      H1131   0.990       .  S
O1100      H1117   0.991       .  S
O1101      H1121   0.990       .  S
O1101      H1130   0.990       .  S
O1102      C1103   1.271       .  A
O1104     Zr1567   2.437       .  S
O1104      H1123   0.990       .  S
O1104      H1127   0.991       .  S
O1105      H1119   0.990       .  S
O1105      H1126   0.990   1_556  S
O1106      C1110   1.297       .  A
O1107      C1110   1.299       .  A
O1108     Zr1570   2.436       .  S
O1108      H1118   0.990       .  S
O1109     Zr1570   2.437       .  S
O1109      H1122   0.990       .  S
C1110      C1545   1.512       .  S
C1133      C1134   1.547       .  S
C1133      C1139   1.550       .  S
C1133      C1137   1.535       .  S
C1133      C1405   1.543       .  S
C1134      H2117   1.081       .  S
C1134      C1623   1.360       .  D
C1135      C2071   1.473   1_556  S
C1135      C1136   1.537       .  S
C1135      C1622   1.361       .  D
C1136      C1140   1.537       .  S
C1136      C1138   1.548       .  S
C1136      H1142   1.111   1_556  S
C1137      H1143   1.087   1_655  S
C1137      C1626   1.363       .  D
C1138      C1759   1.479   1_656  S
C1138      C1625   1.362       .  D
C1139      H1144   1.086       .  S
C1139      C1628   1.373       .  D
C1140      C1627   1.370       .  D
C1145      C1146   1.513       .  S
C1145      C1151   1.542       .  S
C1145      C1149   1.514       .  S
C1145      C1414   1.539       .  S
C1146      H1153   1.089       .  S
C1146      C1147   1.352       .  D
C1147      C1148   1.593       .  S
C1148      C1152   1.559       .  S
C1148      C1150   1.569       .  S
C1148      H1154   1.110       .  S
C1149      H1155   1.087       .  S
C1149      C1150   1.374       .  D
C1151      H2132   1.078       .  S
C1151      C1152   1.373       .  D
C1152      C2079   1.491       .  S
Zr1157     O1158   2.436       .  S
Zr1157     O1160   2.450       .  S
Zr1157     O1165   2.365       .  S
Zr1157     O1166   2.390       .  S
Zr1157     O1167   2.410       .  S
Zr1157     O1168   2.404       .  S
O1158      H1222   0.990       .  S
O1159     Zr2133   2.447       .  S
O1159      C1179   1.283       .  A
O1160      C1181   1.284       .  A
O1161     Zr2147   2.552       .  S
O1161      C1180   1.305       .  A
O1162     Zr1170   2.407       .  S
O1162      C1181   1.277       .  A
O1163     Zr2133   2.399       .  S
O1163      C1180   1.279       .  A
O1164     Zr1172   2.396       .  S
O1165     Zr1170   2.391       .  S
O1165     Zr1172   2.378       .  S
O1166     Zr1171   2.407       .  S
O1166     Zr1172   2.385       .  S
O1166      H1201   0.966       .  S
O1167     Zr1170   2.391       .  S
O1167     Zr1187   2.419       .  S
O1167      H1204   0.961       .  S
O1168     Zr1171   2.382       .  S
O1168     Zr1187   2.366       .  S
Zr1169     O1194   2.438       .  S
Zr1169     O1188   2.493       .  S
Zr1169     O1196   2.481       .  S
Zr1169     O1184   2.458       .  S
Zr1169     O1175   2.409       .  S
Zr1169     O1176   2.441       .  S
Zr1169     O1177   2.396       .  S
Zr1169     O1178   2.426       .  S
Zr1170     O1189   2.436       .  S
Zr1170     O1182   2.436       .  S
Zr1170     O1183   2.405       .  S
Zr1170     O1176   2.401       .  S
Zr1170     O1177   2.399       .  S
Zr1171     O1173   2.436       .  S
Zr1171     O1195   2.436       .  S
Zr1171     O1197   2.503       .  S
Zr1171     O1175   2.393       .  S
Zr1171     O1178   2.415       .  S
Zr1172     O1198   2.437       .  S
Zr1172     O1199   2.436       .  S
Zr1172     O1174   2.440       .  S
Zr1172     O1175   2.376       .  S
Zr1172     O1176   2.379       .  S
O1173      H1210   0.990       .  S
O1174      H1205   0.990       .  S
O1174      H1219   0.990       .  S
O1176      H1202   0.964       .  S
O1177     Zr1187   2.391       .  S
O1178     Zr1187   2.402       .  S
O1178      H1203   0.967       .  S
C1179      O2140   1.277       .  A
C1179      C1230   1.479       .  S
C1180      C1240   1.521       .  S
O1182      H1218   0.989       .  S
O1183      C1185   1.270       .  A
O1184      C1185   1.287       .  A
C1185      C1225   1.473       .  S
O1186     Zr1187   2.436       .  S
O1186      H1215   0.991       .  S
Zr1187     O1190   2.449       .  S
Zr1187     O1191   2.448       .  S
Zr1187     O1192   2.421       .  S
O1188      C1193   1.285       .  A
O1189      H1206   0.990       .  S
O1189      H1221   0.990       .  S
O1190      H1207   0.991       .  S
O1191      H1211   0.990       .  S
O1191      H1220   0.990       .  S
O1192      C1193   1.266       .  A
C1193      C1242   1.488       .  S
O1194      H1213   0.990       .  S
O1194      H1217   0.991       .  S
O1195      H1209   0.990       .  S
O1196      C1200   1.293       .  A
O1197      C1200   1.302       .  A
O1198      H1208   0.990       .  S
O1199      H1212   0.990       .  S
C1200      C1327   1.507       .  S
H1214      O2134   0.990       .  S
H1216      O2171   0.990       .  S
C1223      C1224   1.537       .  S
C1223      C1229   1.552       .  S
C1223      C1227   1.536       .  S
C1223      C1373   1.545       .  S
C1224      H1231   1.087       .  S
C1224      C1225   1.363       .  D
C1225      C1226   1.539       .  S
C1226      C1230   1.529       .  S
C1226      C1228   1.547       .  S
C1226      H1232   1.111       .  S
C1227      H1233   1.086       .  S
C1227      C1228   1.365       .  D
C1229      H1234   1.078       .  S
C1229      C1230   1.368       .  D
C1235      C1236   1.521       .  S
C1235      C1241   1.516       .  S
C1235      C1239   1.535       .  S
C1235      C1382   1.542       .  S
C1236      H1243   1.089       .  S
C1236      C1237   1.348       .  D
C1237      C1290   1.500       .  S
C1237      C1238   1.589       .  S
C1238      C1242   1.565       .  S
C1238      C1240   1.564       .  S
C1238      H1244   1.110       .  S
C1239      H1245   1.081       .  S
C1239      C1240   1.388       .  D
C1241      H1246   1.080       .  S
C1241      C1242   1.360       .  D
Zr1247     O1248   2.445       .  S
Zr1247     O1737   2.423       .  S
Zr1247     O1250   2.483       .  S
Zr1247     O1253   2.456       .  S
Zr1247     O1744   2.398       .  S
O1248      H1304   0.990       .  S
O1248      H1312   0.990       .  S
O1249     Zr1735   2.418       .  S
O1249      C1269   1.278       .  A
O1251      C1270   1.289       .  A
O1252     Zr1748   2.417       .  S
O1252      C1271   1.278       .  A
O1253      C1270   1.285       .  A
O1254      C1269   1.278       .  A
O1255     Zr2711   2.374       .  S
O1255     Zr1260   2.398       .  S
O1255     Zr1262   2.372       .  S
O1256     Zr1735   2.401       .  S
O1256      H1291   0.967       .  S
O1257     Zr2223   2.414       .  S
O1257     Zr1748   2.407       .  S
O1257     Zr1277   2.413       .  S
O1257      H1294   0.965       .  S
O1258     Zr2223   2.399       .  S
O1258     Zr1749   2.394       .  S
O1258     Zr1277   2.357       .  S
Zr1259     O1284   2.438       .  S
Zr1259     O1278   2.529       .  S
Zr1259     O1286   2.491       .  S
Zr1259     O1274   2.428       .  S
Zr1259     O1265   2.400       .  S
Zr1259     O1266   2.449       .  S
Zr1259     O1267   2.372       .  S
Zr1259     O1268   2.398       .  S
Zr1260     O1767   2.434   1_554  S
Zr1260     O1272   2.436       .  S
Zr1260     O1740   2.407       .  S
Zr1260     O1273   2.422       .  S
Zr1260     O1745   2.406   1_554  S
Zr1260     O1266   2.393       .  S
Zr1260     O1267   2.387       .  S
Zr1261     O1751   2.438       .  S
Zr1261     O2261   2.436       .  S
Zr1261     O2715   2.483       .  S
Zr1261     O1287   2.487       .  S
Zr1261     O2232   2.414       .  S
Zr1261     O1746   2.390       .  S
Zr1261     O1265   2.365       .  S
Zr1261     O1268   2.420       .  S
Zr1262     O2264   2.437       .  S
Zr1262     O1289   2.437       .  S
Zr1262     O1264   2.437       .  S
Zr1262     O2230   2.410       .  S
Zr1262     O2232   2.375       .  S
Zr1262     O1265   2.380       .  S
Zr1262     O1266   2.387       .  S
O1263     Zr1749   2.437       .  S
O1263      H1300   0.990       .  S
O1264      H1295   0.990       .  S
O1264      H1309   0.990       .  S
O1266      H1292   0.964       .  S
O1267     Zr1765   2.379   1_554  S
O1268     Zr1765   2.401   1_554  S
O1268      H1781   0.967       .  S
C1269      C1320   1.468       .  S
C1270      C1330   1.490       .  S
C1271      O2226   1.290       .  A
C1271      C1626   1.483   1_455  S
O1272      H1308   0.989       .  S
O1273      C1275   1.276       .  A
O1274      C1275   1.285       .  A
C1275      C1315   1.459       .  S
O1276     Zr1277   2.434       .  S
O1276      H1305   0.990       .  S
Zr1277     O1280   2.436       .  S
Zr1277     O1281   2.439       .  S
Zr1277     O1282   2.405       .  S
Zr1277     O1755   2.377       .  S
Zr1277     O1756   2.397       .  S
O1278      C1771   1.300   1_554  A
O1279     Zr1748   2.437       .  S
O1279      H1296   0.990       .  S
O1279      H1311   0.990       .  S
O1280      H1297   0.990       .  S
O1281      H1301   0.990       .  S
O1281      H1310   0.990       .  S
O1282      C1283   1.272       .  A
C1283      O1766   1.299       .  A
C1283      C1332   1.501       .  S
O1284      H1303   0.990       .  S
O1284      H1307   0.991       .  S
O1285      H1299   0.990       .  S
O1285      H1306   0.990       .  S
O1286      C1290   1.297       .  A
O1287      C1290   1.296       .  A
O1288      H1298   0.990       .  S
O1289      H1302   0.990       .  S
H1293      O1756   0.967       .  S
C1313      C1314   1.535       .  S
C1313      C1319   1.533       .  S
C1313      C1317   1.547       .  S
C1313      C1341   1.532       .  S
C1314      H1321   1.081       .  S
C1314      C1315   1.361       .  D
C1315      C1316   1.525       .  S
C1316      C1320   1.531       .  S
C1316      C1318   1.540       .  S
C1316      H1322   1.112       .  S
C1317      H1323   1.085   1_455  S
C1317      C1318   1.369       .  D
C1319      H1324   1.087       .  S
C1319      C1320   1.360       .  D
C1325      C1326   1.522       .  S
C1325      C1331   1.545       .  S
C1325      C1329   1.520       .  S
C1325      C1350   1.538       .  S
C1326      H1333   1.088       .  S
C1326      C1327   1.355       .  D
C1327      C1328   1.590       .  S
C1328      C1332   1.557       .  S
C1328      C1330   1.561       .  S
C1328      H1334   1.110       .  S
C1329      H1335   1.084       .  S
C1329      C1330   1.366       .  D
C1331      H1336   1.077       .  S
C1331      C1332   1.368       .  D
C1337      C1338   1.392       .  A
C1337      C1342   1.393       .  A
C1337      H1347   1.086       .  S
C1338      C1339   1.403       .  A
C1338      C1343   1.474       .  S
C1339      C1344   1.505   1_455  S
C1339      C1340   1.407       .  A
C1340      C1341   1.418       .  A
C1340      H1345   1.081   1_455  S
C1341      C1342   1.434       .  A
C1342      C1346   1.515       .  S
C1343      C1348   1.411       .  A
C1343      C1352   1.398       .  A
C1344      H1360   1.110       .  S
C1344      H1361   1.111       .  S
C1344      H1362   1.110       .  S
C1346      H1357   1.111       .  S
C1346      H1358   1.107       .  S
C1346      H1359   1.109       .  S
C1348      C1353   1.509       .  S
C1348      C1349   1.397       .  A
C1349      C1350   1.409       .  A
C1349      H1354   1.084       .  S
C1350      C1351   1.422       .  A
C1351      C1355   1.502       .  S
C1351      C1352   1.404       .  A
C1352      H1356   1.084       .  S
C1353      H1363   1.111       .  S
C1353      H1364   1.109       .  S
C1353      H1365   1.110       .  S
C1355      H1366   1.110       .  S
C1355      H1367   1.108       .  S
C1355      H1368   1.111       .  S
C1369      C1370   1.399       .  A
C1369      C1374   1.407       .  A
C1369      H1867   1.083       .  S
C1370      C1371   1.410       .  A
C1370      C1863   1.485       .  S
C1371      C1376   1.512       .  S
C1371      C1372   1.398       .  A
C1372      C1373   1.413       .  A
C1372      H1377   1.072       .  S
C1373      C1374   1.430       .  A
C1374      C1378   1.513       .  S
C1375      C1380   1.413       .  A
C1375      C1384   1.405       .  A
C1375      C1858   1.488       .  S
C1376      H1392   1.109       .  S
C1376      H1393   1.111       .  S
C1376      H1394   1.111       .  S
C1378      H1389   1.106       .  S
C1378      H1390   1.111       .  S
C1378      H1391   1.107       .  S
H1379      C1857   1.082       .  S
C1380      C1385   1.509       .  S
C1380      C1381   1.398       .  A
C1381      C1382   1.410       .  A
C1381      H1386   1.084       .  S
C1382      C1383   1.417       .  A
C1383      C1387   1.501       .  S
C1383      C1384   1.407       .  A
C1384      H1388   1.084       .  S
C1385      H1395   1.111       .  S
C1385      H1396   1.109       .  S
C1385      H1397   1.111       .  S
C1387      H2374   1.108       .  S
C1387      H1399   1.108       .  S
C1387      H1400   1.111       .  S
C1401      C1402   1.400       .  A
C1401      C1406   1.407       .  A
C1401      H1411   1.085       .  S
C1402      C1403   1.410       .  A
C1402      C1407   1.478       .  S
C1403      C2384   1.512       .  S
C1403      C1404   1.399       .  A
C1404      C1405   1.412       .  A
C1404      H1409   1.076       .  S
C1405      C1406   1.427       .  A
C1406      C1410   1.509   1_655  S
C1407      C1412   1.406       .  A
C1407      C1416   1.392       .  A
C1408      H1425   1.106       .  S
C1408      H1426   1.111       .  S
C1410      H1421   1.111       .  S
C1410      H1422   1.110       .  S
C1410      H1423   1.104       .  S
C1412      C2393   1.507       .  S
C1412      C1413   1.409       .  A
C1413      C1414   1.417       .  A
C1413      H1418   1.076       .  S
C1414      C1415   1.432       .  A
C1415      C1419   1.514       .  S
C1415      C1416   1.395       .  A
C1416      H1420   1.086       .  S
C1417      H1427   1.111       .  S
C1417      H1429   1.106       .  S
C1419      H1430   1.111       .  S
C1419      H1431   1.101       .  S
C1419      H1432   1.110       .  S
H1424      C2384   1.111       .  S
H1428      C2393   1.110       .  S
C1433      C1434   1.395       .  A
C1433      C1438   1.401       .  A
C1433      H1443   1.083       .  S
C1434      C1435   1.410       .  A
C1434      C1439   1.472       .  S
C1435      C1440   1.511       .  S
C1435      C1436   1.398       .  A
C1436      C1437   1.408       .  A
C1436      H1441   1.077       .  S
C1437      C1438   1.431       .  A
C1438      C1442   1.512       .  S
C1439      C1444   1.404   1_554  A
C1439      C1448   1.394       .  A
C1440      H1456   1.111       .  S
C1440      H1457   1.108       .  S
C1440      H1458   1.111       .  S
C1442      H1453   1.111       .  S
C1442      H1454   1.111       .  S
C1442      H1455   1.104       .  S
C1444      C1449   1.506       .  S
C1444      C1445   1.405       .  A
C1445      C1934   1.415       .  A
C1445      H1938   1.078       .  S
C1446      C1933   1.417       .  A
C1446      C1935   1.430       .  A
C1447      C1451   1.514       .  S
C1447      C1934   1.430       .  A
C1447      C1448   1.394   1_556  A
C1448      H1452   1.086       .  S
C1449      H1459   1.111       .  S
C1449      H1460   1.110       .  S
C1449      H1461   1.108       .  S
H1450      C1933   1.076       .  S
C1451      H1462   1.110       .  S
C1451      H1951   1.101       .  S
C1451      H1464   1.110   1_556  S
H1463      C1939   1.101       .  S
Zr1465     O1466   2.443       .  S
Zr1465     O1467   2.432       .  S
Zr1465     O1468   2.476       .  S
Zr1465     O1471   2.459       .  S
Zr1465     O1473   2.377       .  S
Zr1465     O1474   2.392       .  S
Zr1465     O1475   2.412       .  S
Zr1465     O1476   2.391       .  S
O1466      H1522   0.990       .  S
O1466      H1530   0.990       .  S
O1467      C1487   1.281       .  A
O1468      C1489   1.291       .  A
O1469     Zr1479   2.482       .  S
O1469      C1488   1.290       .  A
O1470     Zr1478   2.422       .  S
O1470      C1489   1.280       .  A
O1471      C1488   1.291       .  A
O1472     Zr1480   2.398       .  S
O1472      C1487   1.277       .  A
O1473     Zr1478   2.400       .  S
O1473     Zr1480   2.378       .  S
O1474     Zr1479   2.410       .  S
O1474     Zr1480   2.378       .  S
O1474      H1509   0.966       .  S
O1475     Zr1478   2.400       .  S
O1475     Zr1495   2.407       .  S
O1475      H1512   0.967       .  S
O1476     Zr1479   2.380       .  S
O1476     Zr1495   2.354       .  S
Zr1477     O1502   2.437       .  S
Zr1477     O2472   2.517       .  S
Zr1477     O1504   2.505       .  S
Zr1477     O2468   2.445       .  S
Zr1477     O1483   2.398       .  S
Zr1477     O1484   2.444       .  S
Zr1477     O1485   2.386       .  S
Zr1477     O1486   2.403       .  S
Zr1478     O1497   2.440       .  S
Zr1478     O1490   2.437       .  S
Zr1478     O2467   2.425       .  S
Zr1478     O1484   2.402       .  S
Zr1478     O1485   2.390       .  S
Zr1479     O1481   2.437       .  S
Zr1479     O1503   2.435       .  S
Zr1479     O1505   2.473       .  S
Zr1479     O1483   2.378       .  S
Zr1479     O1486   2.414       .  S
Zr1480     O1506   2.436       .  S
Zr1480     O1507   2.436       .  S
Zr1480     O1482   2.439       .  S
Zr1480     O1483   2.377       .  S
Zr1480     O1484   2.381       .  S
O1481      H1518   0.990       .  S
O1482      H1513   0.990       .  S
O1482      H1527   0.990       .  S
O1484      H1510   0.966       .  S
O1485     Zr1495   2.380       .  S
O1486     Zr1495   2.398       .  S
O1486      H1511   0.965       .  S
C1487      C1538   1.472       .  S
C1488      C1548   1.499       .  S
C1489      C1716   1.485       .  S
O1490      H1526   0.990       .  S
O1491      C1493   1.279       .  A
O1492      C1493   1.286       .  A
C1493      C1533   1.465       .  S
O1494     Zr1495   2.438       .  S
O1494      H1523   0.990       .  S
Zr1495     O1498   2.436       .  S
Zr1495     O1499   2.438       .  S
Zr1495     O1500   2.403       .  S
O1496      C1501   1.299       .  A
O1497      H1514   0.990       .  S
O1497      H1529   0.990       .  S
O1498      H1515   0.991       .  S
O1499      H1519   0.990       .  S
O1499      H1528   0.990       .  S
O1500      C2477   1.272       .  A
C1501      C1550   1.499       .  S
O1502      H1521   0.990       .  S
O1502      H1525   0.991       .  S
O1503      H1517   0.990       .  S
O1503      H1524   0.990       .  S
O1504      C1508   1.298       .  A
O1505      C1508   1.294       .  A
O1506      H1516   0.990       .  S
O1507      H1520   0.990       .  S
C1508      C1635   1.504       .  S
C1531      C1532   1.554       .  S
C1531      C1537   1.539       .  S
C1531      C1535   1.531       .  S
C1531      C1925   1.538       .  S
C1532      H1539   1.081       .  S
C1532      C1533   1.367       .  D
C1533      C1534   1.527       .  S
C1534      C1538   1.531       .  S
C1534      C1536   1.535       .  S
C1534      H1540   1.111       .  S
C1535      H1541   1.087       .  S
C1535      C1536   1.361       .  D
C1536      C1669   1.463       .  S
C1537      H1542   1.087       .  S
C1537      C1538   1.366       .  D
C1543      C1544   1.515       .  S
C1543      C1549   1.547       .  S
C1543      C1547   1.518       .  S
C1543      C1934   1.534       .  S
C1544      C1545   1.351       .  D
C1545      C1546   1.596       .  S
C1546      C1550   1.560       .  S
C1546      C1548   1.567       .  S
C1546      H1552   1.110       .  S
C1547      H1553   1.087       .  S
C1547      C1548   1.367       .  D
C1549      H1554   1.080       .  S
C1549      C1550   1.372       .  D
Zr1555     O1556   2.441       .  S
Zr1555     O1557   2.448       .  S
Zr1555     O1558   2.480       .  S
Zr1555     O1561   2.425       .  S
Zr1555     O1563   2.370       .  S
Zr1555     O1564   2.400       .  S
Zr1555     O1565   2.413       .  S
Zr1555     O1566   2.383       .  S
O1556      H1612   0.990       .  S
O1556      H1620   0.990       .  S
O1557      C1577   1.285       .  A
O1558      C1579   1.291       .  A
O1559     Zr1569   2.526       .  S
O1559      C1578   1.298       .  A
O1560     Zr1568   2.391       .  S
O1560      C1579   1.275       .  A
O1561      C1578   1.288       .  A
O1562     Zr1570   2.424       .  S
O1562      C1577   1.281       .  A
O1563     Zr1568   2.397       .  S
O1563     Zr1570   2.382       .  S
O1564     Zr1569   2.414       .  S
O1564     Zr1570   2.385       .  S
O1564      H1599   0.966       .  S
O1565     Zr1568   2.396       .  S
O1565     Zr1585   2.410       .  S
O1565      H1602   0.965       .  S
O1566     Zr1569   2.364       .  S
O1566     Zr1585   2.342       .  S
Zr1567     O1586   2.519       .  S
Zr1567     O1594   2.495       .  S
Zr1567     O1582   2.458       .  S
Zr1567     O1573   2.420       .  S
Zr1567     O1574   2.445       .  S
Zr1567     O1575   2.383       .  S
Zr1567     O1576   2.412       .  S
Zr1568     O1587   2.438       .  S
Zr1568     O1580   2.436       .  S
Zr1568     O1581   2.412       .  S
Zr1568     O1574   2.398       .  S
Zr1568     O1575   2.389       .  S
Zr1569     O1571   2.435       .  S
Zr1569     O1593   2.439       .  S
Zr1569     O1595   2.484       .  S
Zr1569     O1573   2.390       .  S
Zr1569     O1576   2.419       .  S
Zr1570     O1573   2.396       .  S
Zr1570     O1574   2.393       .  S
O1571      H1608   0.990       .  S
O1572      H1603   0.990       .  S
O1572      H1617   0.990       .  S
O1574      H1600   0.963       .  S
O1575     Zr1585   2.382       .  S
O1576     Zr1585   2.391       .  S
O1576      H1601   0.966       .  S
C1577      C1628   1.486       .  S
C1578      C1638   1.517       .  S
C1579      C1806   1.471   1_655  S
O1580      H1616   0.990       .  S
O1581      C1583   1.270       .  A
O1582      C1583   1.289       .  A
O1584     Zr1585   2.437       .  S
O1584      H1613   0.990       .  S
Zr1585     O1588   2.434       .  S
Zr1585     O1589   2.438       .  S
Zr1585     O1590   2.407       .  S
O1586      C1591   1.295       .  A
O1587      H1604   0.990       .  S
O1587      H1619   0.990       .  S
O1588      H1605   0.991       .  S
O1589      H1609   0.990       .  S
O1589      H1618   0.990       .  S
O1590      C1591   1.272       .  A
O1592      H1611   0.990       .  S
O1592      H1615   0.991   1_556  S
O1593      H1607   0.990       .  S
O1593      H1614   0.990       .  S
O1594      C1598   1.297       .  A
O1595      C1598   1.297       .  A
O1596      H1606   0.990       .  S
O1597      H1610   0.990       .  S
C1621      C1622   1.548       .  S
C1621      C1627   1.545       .  S
C1621      C1625   1.532       .  S
C1621      C1893   1.539       .  S
C1622      H2605   1.082       .  S
C1623      C2559   1.475       .  S
C1623      C1624   1.539       .  S
C1624      C1628   1.536       .  S
C1624      C1626   1.548       .  S
C1624      H1630   1.111       .  S
C1625      H1631   1.087   1_655  S
C1627      H1632   1.086       .  S
C1633      C1634   1.512       .  S
C1633      C1639   1.544       .  S
C1633      C1637   1.515       .  S
C1633      C1902   1.540       .  S
C1634      H1641   1.089       .  S
C1634      C1635   1.351       .  D
C1635      C1636   1.593       .  S
C1636      C1640   1.556       .  S
C1636      C1638   1.568       .  S
C1636      H1642   1.110       .  S
C1637      H1643   1.086       .  S
C1637      C1638   1.374       .  D
C1639      H2620   1.078       .  S
C1639      C1640   1.375       .  D
C1640      C2567   1.490       .  S
Zr1645     O1646   2.436       .  S
Zr1645     O1648   2.449       .  S
Zr1645     O1653   2.365       .  S
Zr1645     O1654   2.391       .  S
Zr1645     O1655   2.410       .  S
Zr1645     O1656   2.400       .  S
O1646      H1710   0.990       .  S
O1647     Zr2621   2.440       .  S
O1647      C1667   1.282       .  A
O1648      C1669   1.283       .  A
O1649     Zr2635   2.549       .  S
O1649      C1668   1.305       .  A
O1650     Zr1658   2.399       .  S
O1650      C1669   1.275       .  A
O1651     Zr2621   2.398       .  S
O1651      C1668   1.280       .  A
O1652     Zr1660   2.391       .  S
O1653     Zr1658   2.393       .  S
O1653     Zr1660   2.377       .  S
O1654     Zr1659   2.403       .  S
O1654     Zr1660   2.383       .  S
O1654      H1689   0.967       .  S
O1655     Zr1658   2.394       .  S
O1655     Zr1675   2.421       .  S
O1655      H1692   0.962       .  S
O1656     Zr1659   2.378       .  S
O1656     Zr1675   2.359       .  S
Zr1657     O1682   2.438       .  S
Zr1657     O1676   2.494       .  S
Zr1657     O1684   2.476       .  S
Zr1657     O1672   2.478       .  S
Zr1657     O1663   2.414       .  S
Zr1657     O1664   2.436       .  S
Zr1657     O1665   2.391       .  S
Zr1657     O1666   2.429       .  S
Zr1658     O1677   2.437       .  S
Zr1658     O1670   2.435       .  S
Zr1658     O1671   2.408       .  S
Zr1658     O1664   2.397       .  S
Zr1658     O1665   2.398       .  S
Zr1659     O1661   2.436       .  S
Zr1659     O1683   2.438       .  S
Zr1659     O1685   2.498       .  S
Zr1659     O1663   2.396       .  S
Zr1659     O1666   2.421       .  S
Zr1660     O1686   2.435       .  S
Zr1660     O1687   2.435       .  S
Zr1660     O1662   2.441       .  S
Zr1660     O1663   2.376       .  S
Zr1660     O1664   2.376       .  S
O1661      H1698   0.990       .  S
O1662      H1693   0.990       .  S
O1662      H1707   0.990       .  S
O1664      H1690   0.966       .  S
O1665     Zr1675   2.395       .  S
O1666     Zr1675   2.392       .  S
O1666      H1691   0.966       .  S
C1667      O2628   1.276       .  A
C1667      C1718   1.473       .  S
C1668      C1728   1.516       .  S
O1670      H1706   0.990       .  S
O1671      C1673   1.271       .  A
O1672      C1673   1.291       .  A
C1673      C1713   1.481       .  S
O1674     Zr1675   2.436       .  S
O1674      H1703   0.991       .  S
Zr1675     O1678   2.445       .  S
Zr1675     O1679   2.448       .  S
Zr1675     O1680   2.422       .  S
O1676      C1681   1.286       .  A
O1677      H1694   0.990       .  S
O1677      H1709   0.990       .  S
O1678      H1695   0.991       .  S
O1679      H1699   0.989       .  S
O1679      H1708   0.990       .  S
O1680      C1681   1.267       .  A
C1681      C1730   1.487       .  S
O1682      H1701   0.990       .  S
O1682      H1705   0.991       .  S
O1683      H1697   0.990       .  S
O1684      C1688   1.293       .  A
O1685      C1688   1.302       .  A
O1686      H1696   0.990       .  S
O1687      H1700   0.990       .  S
C1688      C1815   1.504       .  S
H1702      O2622   0.990       .  S
H1704      O2659   0.990       .  S
C1711      C1712   1.542       .  S
C1711      C1717   1.549       .  S
C1711      C1715   1.538       .  S
C1711      C1861   1.548       .  S
C1712      H1719   1.086       .  S
C1712      C1713   1.366       .  D
C1713      C1714   1.543       .  S
C1714      C1718   1.529       .  S
C1714      C1716   1.547       .  S
C1714      H1720   1.111       .  S
C1715      H1721   1.086       .  S
C1715      C1716   1.365       .  D
C1717      H1722   1.078       .  S
C1717      C1718   1.366       .  D
C1723      C1724   1.521       .  S
C1723      C1729   1.514       .  S
C1723      C1727   1.534       .  S
C1723      C1870   1.539       .  S
C1724      H1731   1.089       .  S
C1724      C1725   1.347       .  D
C1725      C1778   1.497       .  S
C1725      C1726   1.586       .  S
C1726      C1730   1.564       .  S
C1726      C1728   1.563       .  S
C1726      H1732   1.110       .  S
C1727      H1733   1.081       .  S
C1727      C1728   1.388       .  D
C1729      H1734   1.082       .  S
C1729      C1730   1.360       .  D
Zr1735     O1736   2.449   1_554  S
Zr1735     O1738   2.476   1_554  S
Zr1735     O1741   2.458       .  S
O1736      H1792   0.990   1_556  S
O1736      H1800   0.990       .  S
O1737      C1757   1.279       .  A
O1739      C1758   1.289   1_554  A
O1740      C1759   1.276       .  A
O1741      C1758   1.286   1_554  A
O1742      C1757   1.279       .  A
O1743     Zr2223   2.371       .  S
O1743     Zr1748   2.393       .  S
O1743     Zr1750   2.375       .  S
O1744      H1779   0.966       .  S
O1745     Zr2711   2.414   1_556  S
O1745     Zr1765   2.408       .  S
O1745      H1782   0.966       .  S
O1746     Zr2711   2.393       .  S
O1746     Zr1765   2.350   1_554  S
Zr1747     O1772   2.437       .  S
Zr1747     O1766   2.525       .  S
Zr1747     O1774   2.487       .  S
Zr1747     O1762   2.423       .  S
Zr1747     O1753   2.396       .  S
Zr1747     O1754   2.446       .  S
Zr1747     O1755   2.375       .  S
Zr1747     O1756   2.399       .  S
Zr1748     O1760   2.437       .  S
Zr1748     O1761   2.422       .  S
Zr1748     O1754   2.396       .  S
Zr1748     O1755   2.392       .  S
Zr1749     O2749   2.437       .  S
Zr1749     O2227   2.478       .  S
Zr1749     O1775   2.484       .  S
Zr1749     O2720   2.415       .  S
Zr1749     O1753   2.367       .  S
Zr1749     O1756   2.420       .  S
Zr1750     O2752   2.436       .  S
Zr1750     O1777   2.437       .  S
Zr1750     O1752   2.438       .  S
Zr1750     O2718   2.397       .  S
Zr1750     O2720   2.377       .  S
Zr1750     O1753   2.373       .  S
Zr1750     O1754   2.380       .  S
O1751      H1788   0.990       .  S
O1752      H1783   0.990       .  S
O1752      H1797   0.990       .  S
O1754      H1780   0.965       .  S
C1757      C1808   1.474       .  S
C1758      C1818   1.490       .  S
C1759      O2714   1.290   1_554  A
O1760      H1796   0.990       .  S
O1761      C1763   1.277       .  A
O1762      C1763   1.284       .  A
C1763      C1803   1.454       .  S
O1764     Zr1765   2.439       .  S
O1764      H1793   0.990       .  S
Zr1765     O1768   2.435       .  S
Zr1765     O1769   2.440       .  S
Zr1765     O1770   2.400       .  S
O1767      H1784   0.990       .  S
O1767      H1799   0.990       .  S
O1768      H1785   0.989       .  S
O1769      H1789   0.990       .  S
O1769      H1798   0.990       .  S
O1770      C1771   1.274       .  A
C1771      C1820   1.500       .  S
O1772      H1791   0.990       .  S
O1772      H1795   0.991       .  S
O1773      H1787   0.990       .  S
O1773      H1794   0.990       .  S
O1774      C1778   1.296       .  A
O1775      C1778   1.296       .  A
O1776      H1786   0.990       .  S
O1777      H1790   0.990       .  S
C1801      C1802   1.536       .  S
C1801      C1807   1.536       .  S
C1801      C1805   1.549       .  S
C1801      C1829   1.533       .  S
C1802      H1809   1.083       .  S
C1802      C1803   1.361       .  D
C1803      C1804   1.523       .  S
C1804      C1808   1.532       .  S
C1804      C1806   1.540       .  S
C1804      H1810   1.111       .  S
C1805      H1811   1.084   1_455  S
C1805      C1806   1.370       .  D
C1807      H1812   1.087       .  S
C1807      C1808   1.360       .  D
C1813      C1814   1.521       .  S
C1813      C1819   1.544       .  S
C1813      C1817   1.516       .  S
C1813      C1838   1.536       .  S
C1814      H1821   1.088       .  S
C1814      C1815   1.360       .  D
C1815      C1816   1.592       .  S
C1816      C1820   1.554       .  S
C1816      C1818   1.561       .  S
C1816      H1822   1.110       .  S
C1817      H1823   1.082       .  S
C1817      C1818   1.363       .  D
C1819      H1824   1.078       .  S
C1819      C1820   1.366       .  D
C1825      C1826   1.392       .  A
C1825      C1830   1.392       .  A
C1825      H1835   1.086       .  S
C1826      C1827   1.402       .  A
C1826      C1831   1.473       .  S
C1827      C1832   1.505   1_455  S
C1827      C1828   1.408       .  A
C1828      C1829   1.418       .  A
C1828      H1833   1.079   1_455  S
C1829      C1830   1.433       .  A
C1830      C1834   1.516       .  S
C1831      C1836   1.410       .  A
C1831      C1840   1.397       .  A
C1832      H1848   1.110       .  S
C1832      H1849   1.111       .  S
C1832      H1850   1.110       .  S
C1834      H1845   1.111       .  S
C1834      H1846   1.107       .  S
C1834      H1847   1.109       .  S
C1836      C1841   1.507       .  S
C1836      C1837   1.400       .  A
C1837      C1838   1.409       .  A
C1837      H1842   1.084       .  S
C1838      C1839   1.421       .  A
C1839      C1843   1.501       .  S
C1839      C1840   1.401       .  A
C1840      H1844   1.084       .  S
C1841      H1851   1.111       .  S
C1841      H1852   1.109       .  S
C1841      H1853   1.111       .  S
C1843      H1854   1.108       .  S
C1843      H1855   1.109       .  S
C1843      H1856   1.111       .  S
C1857      C1858   1.400       .  A
C1857      C1862   1.408   1_554  A
C1858      C1859   1.410       .  A
C1859      C1864   1.512       .  S
C1859      C1860   1.399   1_554  A
C1860      C1861   1.415       .  A
C1860      H1865   1.072       .  S
C1861      C1862   1.429       .  A
C1862      C1866   1.512       .  S
C1863      C1868   1.413       .  A
C1863      C1872   1.404       .  A
C1864      H1880   1.109       .  S
C1864      H1881   1.111       .  S
C1864      H1882   1.111       .  S
C1866      H1877   1.106       .  S
C1866      H1878   1.111       .  S
C1866      H1879   1.107       .  S
C1868      C1873   1.510       .  S
C1868      C1869   1.397       .  A
C1869      C1870   1.410       .  A
C1869      H1874   1.084       .  S
C1870      C1871   1.416       .  A
C1871      C1875   1.501       .  S
C1871      C1872   1.406       .  A
C1872      H1876   1.084       .  S
C1873      H1883   1.111       .  S
C1873      H1884   1.108       .  S
C1873      H1885   1.111       .  S
C1875      H2862   1.108       .  S
C1875      H1887   1.108       .  S
C1875      H1888   1.111       .  S
C1889      C1890   1.402       .  A
C1889      C1894   1.406       .  A
C1889      H1899   1.085       .  S
C1890      C1891   1.412       .  A
C1890      C1895   1.480       .  S
C1891      C2872   1.512       .  S
C1891      C1892   1.398       .  A
C1892      C1893   1.410       .  A
C1892      H1897   1.077       .  S
C1893      C1894   1.427       .  A
C1894      C1898   1.511   1_655  S
C1895      C1900   1.407       .  A
C1895      C1904   1.393       .  A
C1896      H1913   1.105       .  S
C1896      H1914   1.111       .  S
C1898      H1909   1.111       .  S
C1898      H1910   1.111       .  S
C1898      H1911   1.104       .  S
C1900      C2881   1.509       .  S
C1900      C1901   1.411       .  A
C1901      C1902   1.417       .  A
C1901      H1906   1.077       .  S
C1902      C1903   1.434       .  A
C1903      C1907   1.516       .  S
C1903      C1904   1.395       .  A
C1904      H1908   1.086       .  S
C1905      H1915   1.111       .  S
C1905      H1917   1.106       .  S
C1907      H1918   1.111       .  S
C1907      H1919   1.100       .  S
C1907      H1920   1.110       .  S
H1912      C2872   1.110       .  S
H1916      C2881   1.110       .  S
C1921      C1922   1.397       .  A
C1921      C1926   1.404       .  A
C1921      H1931   1.084       .  S
C1922      C1923   1.411       .  A
C1922      C1927   1.476       .  S
C1923      C1928   1.512       .  S
C1923      C1924   1.399       .  A
C1924      C1925   1.409       .  A
C1924      H1929   1.075       .  S
C1925      C1926   1.432       .  A
C1926      C1930   1.512       .  S
C1927      C1932   1.404       .  A
C1927      C1936   1.395       .  A
C1928      H1944   1.110       .  S
C1928      H1945   1.107       .  S
C1928      H1946   1.111       .  S
C1930      H1941   1.111       .  S
C1930      H1942   1.111       .  S
C1930      H1943   1.103       .  S
C1932      C1937   1.507       .  S
C1932      C1933   1.405       .  A
C1935      C1939   1.513       .  S
C1935      C1936   1.396       .  A
C1936      H1940   1.086       .  S
C1937      H1947   1.111       .  S
C1937      H1948   1.110       .  S
C1937      H1949   1.108       .  S
C1939      H1950   1.111       .  S
C1939      H1952   1.111       .  S
Zr1953     O1954   2.444       .  S
Zr1953     O1955   2.431       .  S
Zr1953     O1956   2.475       .  S
Zr1953     O1959   2.446       .  S
Zr1953     O1961   2.371       .  S
Zr1953     O1962   2.393       .  S
Zr1953     O1963   2.410       .  S
Zr1953     O1964   2.392       .  S
O1954      H2010   0.990       .  S
O1954      H2018   0.990       .  S
O1955      C1975   1.281       .  A
O1956      C1977   1.290       .  A
O1957     Zr1967   2.500       .  S
O1957      C1976   1.294       .  A
O1958     Zr1966   2.417       .  S
O1958      C1977   1.279       .  A
O1959      C1976   1.290       .  A
O1960     Zr1968   2.407       .  S
O1960      C1975   1.279       .  A
O1961     Zr1966   2.400       .  S
O1961     Zr1968   2.380       .  S
O1962     Zr1967   2.413       .  S
O1962     Zr1968   2.382       .  S
O1962      H1997   0.966       .  S
O1963     Zr1966   2.398       .  S
O1963     Zr1983   2.409       .  S
O1963      H2000   0.966       .  S
O1964     Zr1967   2.378       .  S
O1964     Zr1983   2.356       .  S
Zr1965     O1990   2.438   1_565  S
Zr1965     O1992   2.500       .  S
Zr1965     O1971   2.400       .  S
Zr1965     O1972   2.442       .  S
Zr1965     O1973   2.385       .  S
Zr1965     O1974   2.406       .  S
Zr1966     O1985   2.438   1_565  S
Zr1966     O1978   2.437       .  S
Zr1966     O1972   2.400       .  S
Zr1966     O1973   2.395       .  S
Zr1967     O1969   2.436       .  S
Zr1967     O1991   2.439       .  S
Zr1967     O1993   2.483       .  S
Zr1967     O1971   2.375       .  S
Zr1967     O1974   2.417       .  S
Zr1968     O1994   2.436       .  S
Zr1968     O1995   2.436       .  S
Zr1968     O1970   2.438       .  S
Zr1968     O1971   2.375       .  S
Zr1968     O1972   2.383       .  S
O1969      H2006   0.990       .  S
O1970      H2001   0.990       .  S
O1970      H2015   0.990       .  S
O1972      H1998   0.964       .  S
O1973     Zr1983   2.383       .  S
O1974     Zr1983   2.395       .  S
O1974      H1999   0.964       .  S
C1975      C2026   1.475       .  S
C1976      C2036   1.506       .  S
C1977      C2204   1.482       .  S
O1978      H2014   0.990       .  S
O1979      C1981   1.278       .  A
O1980      C1981   1.289       .  A
C1981      C2021   1.467       .  S
O1982     Zr1983   2.438       .  S
O1982      H2011   0.990       .  S
Zr1983     O1986   2.434       .  S
Zr1983     O1987   2.440       .  S
Zr1983     O1988   2.407   1_565  S
O1984      C1989   1.298       .  A
O1985      H2002   0.990       .  S
O1985      H2017   0.990       .  S
O1986      H2003   0.991       .  S
O1987      H2007   0.990       .  S
O1987      H2016   0.990       .  S
C1989      C2038   1.497       .  S
O1990      H2009   0.990       .  S
O1990      H2013   0.991       .  S
O1991      H2005   0.990       .  S
O1991      H2012   0.990       .  S
O1992      C1996   1.298       .  A
O1993      C1996   1.296       .  A
O1994      H2004   0.990       .  S
O1995      H2008   0.990       .  S
C1996      C2123   1.504       .  S
C2019      C2020   1.555       .  S
C2019      C2025   1.542       .  S
C2019      C2023   1.532       .  S
C2019      C2413   1.538       .  S
C2020      H2027   1.081       .  S
C2020      C2021   1.368       .  D
C2021      C2022   1.528       .  S
C2022      C2026   1.533       .  S
C2022      C2024   1.536       .  S
C2022      H2028   1.111       .  S
C2023      H2029   1.087       .  S
C2023      C2024   1.361       .  D
C2024      C2157   1.467       .  S
C2025      H2030   1.086       .  S
C2025      C2026   1.366       .  D
C2031      C2032   1.517       .  S
C2031      C2037   1.544       .  S
C2031      C2035   1.516       .  S
C2031      C2422   1.537       .  S
C2032      H2527   1.088       .  S
C2032      C2033   1.353       .  D
C2033      C2574   1.516       .  S
C2033      C2034   1.599       .  S
C2034      C2038   1.560       .  S
C2034      C2036   1.570       .  S
C2034      H2040   1.110       .  S
C2035      H2041   1.087       .  S
C2035      C2036   1.369       .  D
C2037      H2042   1.077       .  S
C2037      C2038   1.369       .  D
H2039      C2520   1.088       .  S
Zr2043     O2044   2.442       .  S
Zr2043     O2045   2.443       .  S
Zr2043     O2046   2.487       .  S
Zr2043     O2049   2.421       .  S
Zr2043     O2051   2.366       .  S
Zr2043     O2052   2.400       .  S
Zr2043     O2053   2.408       .  S
Zr2043     O2054   2.388       .  S
O2044      H2100   0.990       .  S
O2044      H2108   0.990       .  S
O2045      C2065   1.284   1_554  A
O2046      C2067   1.292       .  A
O2047     Zr2057   2.525       .  S
O2047      C2066   1.298       .  A
O2048     Zr2056   2.385       .  S
O2048      C2067   1.274       .  A
O2049      C2066   1.287       .  A
O2050     Zr2058   2.413       .  S
O2050      C2065   1.279       .  A
O2051     Zr2056   2.396       .  S
O2051     Zr2058   2.383   1_554  S
O2052     Zr2057   2.412       .  S
O2052     Zr2058   2.383   1_554  S
O2052      H2087   0.966       .  S
O2053     Zr2056   2.394       .  S
O2053     Zr2073   2.408       .  S
O2053      H2090   0.964       .  S
O2054     Zr2057   2.367       .  S
O2054     Zr2073   2.345       .  S
Zr2055     O2568   2.436   1_554  S
Zr2055     O2074   2.515       .  S
Zr2055     O2082   2.497   1_554  S
Zr2055     O2070   2.456   1_554  S
Zr2055     O2061   2.411   1_554  S
Zr2055     O2062   2.443   1_554  S
Zr2055     O2063   2.379       .  S
Zr2055     O2064   2.412       .  S
Zr2056     O2075   2.437       .  S
Zr2056     O2068   2.435       .  S
Zr2056     O2069   2.412       .  S
Zr2056     O2062   2.396   1_554  S
Zr2056     O2063   2.384       .  S
Zr2057     O2059   2.435       .  S
Zr2057     O2081   2.437   1_554  S
Zr2057     O2083   2.491   1_554  S
Zr2057     O2061   2.383   1_554  S
Zr2057     O2064   2.417       .  S
Zr2058     O2572   2.435       .  S
Zr2058     O2573   2.438       .  S
Zr2058     O2548   2.439       .  S
Zr2058     O2061   2.385       .  S
Zr2058     O2062   2.388       .  S
O2059      H2096   0.990       .  S
O2060     Zr2546   2.440       .  S
O2060      H2091   0.990       .  S
O2060      H2105   0.990       .  S
O2062      H2088   0.962       .  S
O2063     Zr2073   2.381       .  S
O2064     Zr2073   2.391       .  S
O2064      H2089   0.966       .  S
C2065      C2116   1.480       .  S
C2066      C2126   1.514       .  S
C2067      C2294   1.472   1_655  S
O2068      H2104   0.990       .  S
O2069      C2071   1.271       .  A
O2070      C2071   1.289   1_556  A
O2072     Zr2073   2.436       .  S
O2072      H2101   0.990       .  S
Zr2073     O2076   2.434       .  S
Zr2073     O2077   2.439       .  S
Zr2073     O2078   2.405       .  S
O2074      C2079   1.295       .  A
O2075      H2092   0.990       .  S
O2075      H2107   0.990       .  S
O2076      H2093   0.990       .  S
O2077      H2097   0.990       .  S
O2077      H2106   0.990       .  S
O2078      C2079   1.271       .  A
O2080     Zr2543   2.436       .  S
O2080      H2099   0.990       .  S
O2080      H2103   0.991       .  S
O2081      H2095   0.990       .  S
O2081      H2102   0.990   1_556  S
O2082      C2086   1.298       .  A
O2083      C2086   1.299       .  A
O2084     Zr2546   2.436       .  S
O2084      H2094   0.990       .  S
O2085     Zr2546   2.436       .  S
O2085      H2098   0.990       .  S
C2086      C2521   1.509       .  S
C2109      C2110   1.548       .  S
C2109      C2115   1.546       .  S
C2109      C2113   1.535       .  S
C2109      C2381   1.542       .  S
C2110      C2599   1.364       .  D
C2111      C2112   1.537       .  S
C2111      C2598   1.362       .  D
C2112      C2116   1.535       .  S
C2112      C2114   1.545       .  S
C2112      H2118   1.111   1_556  S
C2113      H2119   1.087   1_655  S
C2113      C2602   1.363       .  D
C2114      C2735   1.477   1_656  S
C2114      C2601   1.361       .  D
C2115      H2120   1.086       .  S
C2115      C2604   1.370       .  D
C2116      C2603   1.371       .  D
C2121      C2122   1.512       .  S
C2121      C2127   1.542       .  S
C2121      C2125   1.514       .  S
C2121      C2390   1.538       .  S
C2122      H2129   1.089       .  S
C2122      C2123   1.351       .  D
C2123      C2124   1.595       .  S
C2124      C2128   1.559       .  S
C2124      C2126   1.567       .  S
C2124      H2130   1.110       .  S
C2125      H2131   1.087       .  S
C2125      C2126   1.373       .  D
C2127      C2128   1.375       .  D
Zr2133     O2134   2.435       .  S
Zr2133     O2136   2.456       .  S
Zr2133     O2141   2.367       .  S
Zr2133     O2142   2.392       .  S
Zr2133     O2143   2.405       .  S
Zr2133     O2144   2.405       .  S
O2134      H2198   0.990       .  S
O2135      C2155   1.283       .  A
O2136      C2157   1.285       .  A
O2137      C2156   1.303       .  A
O2138     Zr2146   2.403       .  S
O2138      C2157   1.276       .  A
O2139      C2156   1.280       .  A
O2140     Zr2148   2.394       .  S
O2141     Zr2146   2.394       .  S
O2141     Zr2148   2.380       .  S
O2142     Zr2147   2.407       .  S
O2142     Zr2148   2.388       .  S
O2142      H2177   0.966       .  S
O2143     Zr2146   2.392       .  S
O2143     Zr2163   2.419       .  S
O2143      H2180   0.961       .  S
O2144     Zr2147   2.382       .  S
O2144     Zr2163   2.369       .  S
Zr2145     O2170   2.440       .  S
Zr2145     O2164   2.494       .  S
Zr2145     O2172   2.473       .  S
Zr2145     O2160   2.473       .  S
Zr2145     O2151   2.413       .  S
Zr2145     O2152   2.437       .  S
Zr2145     O2153   2.395       .  S
Zr2145     O2154   2.430       .  S
Zr2146     O2165   2.437       .  S
Zr2146     O2158   2.436       .  S
Zr2146     O2159   2.409       .  S
Zr2146     O2152   2.400       .  S
Zr2146     O2153   2.399       .  S
Zr2147     O2149   2.438       .  S
Zr2147     O2171   2.438       .  S
Zr2147     O2173   2.503       .  S
Zr2147     O2151   2.397       .  S
Zr2147     O2154   2.415       .  S
Zr2148     O2174   2.435       .  S
Zr2148     O2175   2.435       .  S
Zr2148     O2150   2.439       .  S
Zr2148     O2151   2.376       .  S
Zr2148     O2152   2.379       .  S
O2149      H2186   0.990       .  S
O2150      H2181   0.990       .  S
O2150      H2195   0.990       .  S
O2152      H2178   0.963       .  S
O2153     Zr2163   2.393       .  S
O2154     Zr2163   2.403       .  S
O2154      H2179   0.967       .  S
C2155      C2206   1.475       .  S
C2156      C2216   1.515       .  S
O2158      H2194   0.990       .  S
O2159      C2161   1.270       .  A
O2160      C2161   1.289       .  A
C2161      C2201   1.480       .  S
O2162     Zr2163   2.438       .  S
O2162      H2191   0.991       .  S
Zr2163     O2166   2.451       .  S
Zr2163     O2167   2.449       .  S
Zr2163     O2168   2.422       .  S
O2164      C2169   1.285       .  A
O2165      H2182   0.990       .  S
O2165      H2197   0.990       .  S
O2166      H2183   0.991       .  S
O2167      H2187   0.990       .  S
O2167      H2196   0.990       .  S
O2168      C2169   1.266       .  A
C2169      C2218   1.487       .  S
O2170      H2189   0.990       .  S
O2170      H2193   0.990       .  S
O2171      H2185   0.990       .  S
O2172      C2176   1.291       .  A
O2173      C2176   1.302       .  A
O2174      H2184   0.990       .  S
O2175      H2188   0.990       .  S
C2176      C2303   1.505       .  S
C2199      C2200   1.540       .  S
C2199      C2205   1.550       .  S
C2199      C2203   1.537       .  S
C2199      C2349   1.546       .  S
C2200      H2207   1.086       .  S
C2200      C2201   1.364       .  D
C2201      C2202   1.544       .  S
C2202      C2206   1.531       .  S
C2202      C2204   1.546       .  S
C2202      H2208   1.111       .  S
C2203      H2209   1.086       .  S
C2203      C2204   1.365       .  D
C2205      H2210   1.079       .  S
C2205      C2206   1.368       .  D
C2211      C2212   1.520       .  S
C2211      C2217   1.515       .  S
C2211      C2215   1.534       .  S
C2211      C2358   1.543       .  S
C2212      H2219   1.089       .  S
C2212      C2213   1.348       .  D
C2213      C2266   1.500       .  S
C2213      C2214   1.588       .  S
C2214      C2218   1.564       .  S
C2214      C2216   1.563       .  S
C2214      H2220   1.110       .  S
C2215      H2221   1.081       .  S
C2215      C2216   1.387       .  D
C2217      H2222   1.079       .  S
C2217      C2218   1.360       .  D
Zr2223     O2224   2.447       .  S
Zr2223     O2713   2.419       .  S
Zr2223     O2226   2.475       .  S
Zr2223     O2229   2.458       .  S
Zr2223     O2720   2.401       .  S
O2224      H2280   0.990       .  S
O2224      H2288   0.990       .  S
O2225     Zr2711   2.413       .  S
O2225      C2245   1.276       .  A
O2227      C2246   1.287       .  A
O2228     Zr2724   2.409       .  S
O2228      C2247   1.278       .  A
O2229      C2246   1.285       .  A
O2230      C2245   1.279       .  A
O2231     Zr2236   2.396       .  S
O2231     Zr2238   2.373       .  S
O2232     Zr2711   2.399       .  S
O2232      H2267   0.966       .  S
O2233     Zr2724   2.405       .  S
O2233     Zr2253   2.407       .  S
O2233      H2270   0.965       .  S
O2234     Zr2725   2.390       .  S
O2234     Zr2253   2.354       .  S
Zr2235     O2260   2.438       .  S
Zr2235     O2254   2.531       .  S
Zr2235     O2262   2.490       .  S
Zr2235     O2250   2.426       .  S
Zr2235     O2241   2.403       .  S
Zr2235     O2242   2.448       .  S
Zr2235     O2243   2.376       .  S
Zr2235     O2244   2.395       .  S
Zr2236     O2743   2.435   1_554  S
Zr2236     O2248   2.436       .  S
Zr2236     O2716   2.411       .  S
Zr2236     O2249   2.427       .  S
Zr2236     O2721   2.407   1_554  S
Zr2236     O2242   2.386       .  S
Zr2236     O2243   2.393       .  S
Zr2237     O2727   2.435       .  S
Zr2237     O2263   2.488       .  S
Zr2237     O2722   2.387       .  S
Zr2237     O2241   2.367       .  S
Zr2237     O2244   2.419       .  S
Zr2238     O2265   2.435       .  S
Zr2238     O2240   2.438       .  S
Zr2238     O2241   2.380       .  S
Zr2238     O2242   2.380       .  S
O2239     Zr2725   2.438       .  S
O2239      H2276   0.990       .  S
O2240      H2271   0.990       .  S
O2240      H2285   0.990       .  S
O2242      H2268   0.963       .  S
O2243     Zr2741   2.383   1_554  S
O2244     Zr2741   2.398   1_554  S
O2244      H2757   0.966       .  S
C2245      C2296   1.471       .  S
C2246      C2306   1.488       .  S
C2247      C2602   1.480   1_455  S
O2248      H2284   0.989       .  S
O2249      C2251   1.279       .  A
O2250      C2251   1.284       .  A
C2251      C2291   1.458       .  S
O2252     Zr2253   2.439       .  S
O2252      H2281   0.990       .  S
Zr2253     O2256   2.440       .  S
Zr2253     O2257   2.440       .  S
Zr2253     O2258   2.398       .  S
Zr2253     O2731   2.373       .  S
Zr2253     O2732   2.402       .  S
O2254      C2747   1.300   1_554  A
O2255     Zr2724   2.437       .  S
O2255      H2272   0.990       .  S
O2255      H2287   0.990       .  S
O2256      H2273   0.990       .  S
O2257      H2277   0.990       .  S
O2257      H2286   0.990       .  S
O2258      C2259   1.273       .  A
C2259      O2742   1.300       .  A
C2259      C2308   1.498       .  S
O2260      H2279   0.990       .  S
O2260      H2283   0.991       .  S
O2261      H2275   0.990       .  S
O2261      H2282   0.990       .  S
O2262      C2266   1.297       .  A
O2263      C2266   1.296       .  A
O2264      H2274   0.991       .  S
O2265      H2278   0.990       .  S
H2269      O2732   0.967       .  S
C2289      C2290   1.539       .  S
C2289      C2295   1.533       .  S
C2289      C2293   1.550       .  S
C2289      C2317   1.534       .  S
C2290      H2297   1.082       .  S
C2290      C2291   1.363       .  D
C2291      C2292   1.522       .  S
C2292      C2296   1.533       .  S
C2292      C2294   1.540       .  S
C2292      H2298   1.111       .  S
C2293      H2299   1.084   1_455  S
C2293      C2294   1.370       .  D
C2295      H2300   1.088       .  S
C2295      C2296   1.358       .  D
C2301      C2302   1.523       .  S
C2301      C2307   1.544       .  S
C2301      C2305   1.518       .  S
C2301      C2326   1.537       .  S
C2302      H2309   1.088       .  S
C2302      C2303   1.358       .  D
C2303      C2304   1.590       .  S
C2304      C2308   1.554       .  S
C2304      C2306   1.559       .  S
C2304      H2310   1.110       .  S
C2305      H2311   1.083       .  S
C2305      C2306   1.363       .  D
C2307      H2312   1.077       .  S
C2307      C2308   1.367       .  D
C2313      C2314   1.393       .  A
C2313      C2318   1.394       .  A
C2313      H2323   1.086       .  S
C2314      C2315   1.402       .  A
C2314      C2319   1.475       .  S
C2315      C2320   1.505   1_455  S
C2315      C2316   1.408       .  A
C2316      C2317   1.419       .  A
C2316      H2321   1.080   1_455  S
C2317      C2318   1.434       .  A
C2318      C2322   1.515       .  S
C2319      C2324   1.410       .  A
C2319      C2328   1.399       .  A
C2320      H2336   1.109       .  S
C2320      H2337   1.111       .  S
C2320      H2338   1.110       .  S
C2322      H2333   1.111       .  S
C2322      H2334   1.107       .  S
C2322      H2335   1.109       .  S
C2324      C2329   1.507       .  S
C2324      C2325   1.397       .  A
C2325      C2326   1.409       .  A
C2325      H2330   1.084       .  S
C2326      C2327   1.422       .  A
C2327      C2331   1.503       .  S
C2327      C2328   1.404       .  A
C2328      H2332   1.084       .  S
C2329      H2339   1.111       .  S
C2329      H2340   1.109       .  S
C2329      H2341   1.111       .  S
C2331      H2342   1.110       .  S
C2331      H2343   1.108       .  S
C2331      H2344   1.111       .  S
C2345      C2346   1.400       .  A
C2345      C2350   1.407       .  A
C2345      H2843   1.083       .  S
C2346      C2347   1.411       .  A
C2346      C2839   1.489       .  S
C2347      C2352   1.511       .  S
C2347      C2348   1.401       .  A
C2348      C2349   1.414       .  A
C2348      H2353   1.073       .  S
C2349      C2350   1.429       .  A
C2350      C2354   1.513       .  S
C2351      C2356   1.413       .  A
C2351      C2360   1.406       .  A
C2351      C2834   1.493       .  S
C2352      H2368   1.109       .  S
C2352      H2369   1.111       .  S
C2352      H2370   1.111       .  S
C2354      H2365   1.106       .  S
C2354      H2366   1.111       .  S
C2354      H2367   1.107       .  S
H2355      C2833   1.082       .  S
C2356      C2361   1.508       .  S
C2356      C2357   1.400       .  A
C2357      C2358   1.411       .  A
C2357      H2362   1.084       .  S
C2358      C2359   1.416       .  A
C2359      C2363   1.501       .  S
C2359      C2360   1.408       .  A
C2360      H2364   1.084       .  S
C2361      H2371   1.111       .  S
C2361      H2372   1.109       .  S
C2361      H2373   1.110       .  S
C2363      H2375   1.108       .  S
C2363      H2376   1.111       .  S
C2377      C2378   1.400       .  A
C2377      C2382   1.406       .  A
C2377      H2387   1.085       .  S
C2378      C2379   1.410       .  A
C2378      C2383   1.479       .  S
C2379      C2380   1.401       .  A
C2380      C2381   1.412       .  A
C2380      H2385   1.077   1_565  S
C2381      C2382   1.428       .  A
C2382      C2386   1.510   1_655  S
C2383      C2388   1.407       .  A
C2383      C2392   1.393       .  A
C2384      H2401   1.106       .  S
C2384      H2402   1.111       .  S
C2386      H2397   1.110       .  S
C2386      H2398   1.111       .  S
C2386      H2399   1.104       .  S
C2388      C2389   1.410       .  A
C2389      C2390   1.417       .  A
C2389      H2394   1.078       .  S
C2390      C2391   1.432       .  A
C2391      C2395   1.516       .  S
C2391      C2392   1.394       .  A
C2392      H2396   1.086       .  S
C2393      H2403   1.111       .  S
C2393      H2405   1.106       .  S
C2395      H2406   1.111       .  S
C2395      H2407   1.101       .  S
C2395      H2408   1.111       .  S
C2409      C2410   1.397       .  A
C2409      C2414   1.403       .  A
C2409      H2419   1.084       .  S
C2410      C2411   1.411       .  A
C2410      C2415   1.476       .  S
C2411      C2416   1.511       .  S
C2411      C2412   1.400       .  A
C2412      C2413   1.409       .  A
C2412      H2417   1.076       .  S
C2413      C2414   1.430       .  A
C2414      C2418   1.512       .  S
C2415      C2420   1.405   1_554  A
C2415      C2424   1.396       .  A
C2416      H2432   1.110       .  S
C2416      H2433   1.107       .  S
C2416      H2434   1.111       .  S
C2418      H2429   1.111       .  S
C2418      H2430   1.111       .  S
C2418      H2431   1.103       .  S
C2420      C2425   1.508       .  S
C2420      C2421   1.405       .  A
C2421      C2910   1.416       .  A
C2421      H2914   1.077       .  S
C2422      C2909   1.418       .  A
C2422      C2911   1.430       .  A
C2423      C2427   1.514       .  S
C2423      C2910   1.429       .  A
C2423      C2424   1.395   1_556  A
C2424      H2428   1.086       .  S
C2425      H2435   1.111       .  S
C2425      H2436   1.110       .  S
C2425      H2437   1.107       .  S
H2426      C2909   1.076       .  S
C2427      H2438   1.111       .  S
C2427      H2927   1.101       .  S
C2427      H2440   1.110   1_556  S
H2439      C2915   1.100       .  S
Zr2441     O2442   2.443       .  S
Zr2441     O2443   2.433       .  S
Zr2441     O2444   2.468       .  S
Zr2441     O2447   2.462       .  S
Zr2441     O2449   2.377       .  S
Zr2441     O2450   2.390       .  S
Zr2441     O2451   2.412       .  S
Zr2441     O2452   2.388       .  S
O2442      H2498   0.990       .  S
O2442      H2506   0.990       .  S
O2443      C2463   1.282       .  A
O2444      C2465   1.288       .  A
O2445     Zr2455   2.482       .  S
O2445      C2464   1.290       .  A
O2446     Zr2454   2.417       .  S
O2446      C2465   1.280       .  A
O2447      C2464   1.291       .  A
O2448     Zr2456   2.405       .  S
O2448      C2463   1.278       .  A
O2449     Zr2454   2.398       .  S
O2449     Zr2456   2.378       .  S
O2450     Zr2455   2.408       .  S
O2450     Zr2456   2.380       .  S
O2450      H2485   0.965       .  S
O2451     Zr2454   2.400       .  S
O2451     Zr2471   2.407       .  S
O2451      H2488   0.967       .  S
O2452     Zr2455   2.376       .  S
O2452     Zr2471   2.354       .  S
Zr2453     O2478   2.439   1_565  S
Zr2453     O2480   2.500       .  S
Zr2453     O2459   2.401       .  S
Zr2453     O2460   2.444       .  S
Zr2453     O2461   2.383       .  S
Zr2453     O2462   2.405       .  S
Zr2454     O2473   2.440   1_565  S
Zr2454     O2466   2.435       .  S
Zr2454     O2460   2.397       .  S
Zr2454     O2461   2.388       .  S
Zr2455     O2457   2.434       .  S
Zr2455     O2479   2.438       .  S
Zr2455     O2481   2.465       .  S
Zr2455     O2459   2.378       .  S
Zr2455     O2462   2.416       .  S
Zr2456     O2482   2.434       .  S
Zr2456     O2483   2.436       .  S
Zr2456     O2458   2.439       .  S
Zr2456     O2459   2.379       .  S
Zr2456     O2460   2.376       .  S
O2457      H2494   0.990       .  S
O2458      H2489   0.990       .  S
O2458      H2503   0.990       .  S
O2460      H2486   0.965       .  S
O2461     Zr2471   2.379       .  S
O2462     Zr2471   2.396       .  S
O2462      H2487   0.966       .  S
C2463      C2514   1.475       .  S
C2464      C2524   1.500       .  S
C2465      C2692   1.480       .  S
O2466      H2502   0.990       .  S
O2467      C2469   1.278       .  A
O2468      C2469   1.287       .  A
C2469      C2509   1.465       .  S
O2470     Zr2471   2.435       .  S
O2470      H2499   0.990       .  S
Zr2471     O2474   2.435       .  S
Zr2471     O2475   2.438       .  S
Zr2471     O2476   2.405   1_565  S
O2472      C2477   1.296       .  A
O2473      H2490   0.990       .  S
O2473      H2505   0.990   1_545  S
O2474      H2491   0.991       .  S
O2475      H2495   0.990       .  S
O2475      H2504   0.990       .  S
C2477      C2526   1.493       .  S
O2478      H2497   0.990       .  S
O2478      H2501   0.990       .  S
O2479      H2493   0.990       .  S
O2479      H2500   0.990       .  S
O2480      C2484   1.298       .  A
O2481      C2484   1.293       .  A
O2482      H2492   0.990       .  S
O2483      H2496   0.990       .  S
C2484      C2611   1.499       .  S
C2507      C2508   1.554       .  S
C2507      C2513   1.541       .  S
C2507      C2511   1.528       .  S
C2507      C2901   1.535       .  S
C2508      H2515   1.081       .  S
C2508      C2509   1.366       .  D
C2509      C2510   1.528       .  S
C2510      C2514   1.533       .  S
C2510      C2512   1.537       .  S
C2510      H2516   1.111       .  S
C2511      H2517   1.087       .  S
C2511      C2512   1.359       .  D
C2512      C2645   1.464       .  S
C2513      H2518   1.086       .  S
C2513      C2514   1.367       .  D
C2519      C2520   1.516       .  S
C2519      C2525   1.544       .  S
C2519      C2523   1.517       .  S
C2519      C2910   1.535       .  S
C2520      C2521   1.353       .  D
C2521      C2522   1.595       .  S
C2522      C2526   1.557       .  S
C2522      C2524   1.568       .  S
C2522      H2528   1.110       .  S
C2523      H2529   1.084       .  S
C2523      C2524   1.367       .  D
C2525      H2530   1.078       .  S
C2525      C2526   1.368       .  D
Zr2531     O2532   2.442       .  S
Zr2531     O2533   2.440       .  S
Zr2531     O2534   2.472       .  S
Zr2531     O2537   2.414       .  S
Zr2531     O2539   2.365       .  S
Zr2531     O2540   2.399       .  S
Zr2531     O2541   2.408       .  S
Zr2531     O2542   2.387       .  S
O2532      H2588   0.990       .  S
O2532      H2596   0.990       .  S
O2533      C2553   1.283       .  A
O2534      C2555   1.289       .  A
O2535     Zr2545   2.526       .  S
O2535      C2554   1.298       .  A
O2536     Zr2544   2.395       .  S
O2536      C2555   1.275       .  A
O2537      C2554   1.285       .  A
O2538     Zr2546   2.412       .  S
O2538      C2553   1.279       .  A
O2539     Zr2544   2.393       .  S
O2539     Zr2546   2.382       .  S
O2540     Zr2545   2.418       .  S
O2540     Zr2546   2.383       .  S
O2540      H2575   0.966       .  S
O2541     Zr2544   2.396       .  S
O2541     Zr2561   2.407       .  S
O2541      H2578   0.965       .  S
O2542     Zr2545   2.372       .  S
O2542     Zr2561   2.345       .  S
Zr2543     O2562   2.516       .  S
Zr2543     O2570   2.502       .  S
Zr2543     O2558   2.457       .  S
Zr2543     O2549   2.411       .  S
Zr2543     O2550   2.444       .  S
Zr2543     O2551   2.384       .  S
Zr2543     O2552   2.412       .  S
Zr2544     O2563   2.438       .  S
Zr2544     O2556   2.436       .  S
Zr2544     O2557   2.409       .  S
Zr2544     O2550   2.402       .  S
Zr2544     O2551   2.389       .  S
Zr2545     O2547   2.436       .  S
Zr2545     O2569   2.435       .  S
Zr2545     O2571   2.500       .  S
Zr2545     O2549   2.386       .  S
Zr2545     O2552   2.416       .  S
Zr2546     O2549   2.386       .  S
Zr2546     O2550   2.391       .  S
O2547      H2584   0.990       .  S
O2548      H2579   0.990       .  S
O2548      H2593   0.990       .  S
O2550      H2576   0.962       .  S
O2551     Zr2561   2.384       .  S
O2552     Zr2561   2.392       .  S
O2552      H2577   0.967       .  S
C2553      C2604   1.480       .  S
C2554      C2614   1.515       .  S
C2555      C2782   1.469   1_655  S
O2556      H2592   0.990       .  S
O2557      C2559   1.269       .  A
O2558      C2559   1.288       .  A
O2560     Zr2561   2.437       .  S
O2560      H2589   0.990       .  S
Zr2561     O2564   2.434       .  S
Zr2561     O2565   2.439       .  S
Zr2561     O2566   2.399       .  S
O2562      C2567   1.295       .  A
O2563      H2580   0.990       .  S
O2563      H2595   0.990       .  S
O2564      H2581   0.991       .  S
O2565      H2585   0.990       .  S
O2565      H2594   0.990       .  S
O2566      C2567   1.269       .  A
O2568      H2587   0.990       .  S
O2568      H2591   0.991   1_556  S
O2569      H2583   0.990       .  S
O2569      H2590   0.990       .  S
O2570      C2574   1.299       .  A
O2571      C2574   1.300       .  A
O2572      H2582   0.990       .  S
O2573      H2586   0.990       .  S
C2597      C2598   1.547       .  S
C2597      C2603   1.547       .  S
C2597      C2601   1.531       .  S
C2597      C2869   1.538       .  S
C2599      C2600   1.535       .  S
C2600      C2604   1.534       .  S
C2600      C2602   1.545       .  S
C2600      H2606   1.111       .  S
C2601      H2607   1.087   1_655  S
C2603      H2608   1.086       .  S
C2609      C2610   1.513       .  S
C2609      C2615   1.543       .  S
C2609      C2613   1.516       .  S
C2609      C2878   1.540       .  S
C2610      H2617   1.089       .  S
C2610      C2611   1.351       .  D
C2611      C2612   1.590       .  S
C2612      C2616   1.556       .  S
C2612      C2614   1.567       .  S
C2612      H2618   1.110       .  S
C2613      H2619   1.087       .  S
C2613      C2614   1.375       .  D
C2615      C2616   1.374       .  D
Zr2621     O2622   2.437       .  S
Zr2621     O2624   2.451       .  S
Zr2621     O2629   2.365       .  S
Zr2621     O2630   2.390       .  S
Zr2621     O2631   2.410       .  S
Zr2621     O2632   2.401       .  S
O2622      H2686   0.990       .  S
O2623      C2643   1.283       .  A
O2624      C2645   1.284       .  A
O2625      C2644   1.306       .  A
O2626     Zr2634   2.396       .  S
O2626      C2645   1.274       .  A
O2627      C2644   1.279       .  A
O2628     Zr2636   2.389       .  S
O2629     Zr2634   2.393       .  S
O2629     Zr2636   2.379       .  S
O2630     Zr2635   2.402       .  S
O2630     Zr2636   2.383       .  S
O2630      H2665   0.966       .  S
O2631     Zr2634   2.393       .  S
O2631     Zr2651   2.421       .  S
O2631      H2668   0.963       .  S
O2632     Zr2635   2.378       .  S
O2632     Zr2651   2.362       .  S
Zr2633     O2658   2.438       .  S
Zr2633     O2652   2.483       .  S
Zr2633     O2660   2.479       .  S
Zr2633     O2648   2.474       .  S
Zr2633     O2639   2.404       .  S
Zr2633     O2640   2.437       .  S
Zr2633     O2641   2.396       .  S
Zr2633     O2642   2.432       .  S
Zr2634     O2653   2.437       .  S
Zr2634     O2646   2.435       .  S
Zr2634     O2647   2.407       .  S
Zr2634     O2640   2.400       .  S
Zr2634     O2641   2.395       .  S
Zr2635     O2637   2.437       .  S
Zr2635     O2659   2.438       .  S
Zr2635     O2661   2.505       .  S
Zr2635     O2639   2.388       .  S
Zr2635     O2642   2.418       .  S
Zr2636     O2662   2.435       .  S
Zr2636     O2663   2.436       .  S
Zr2636     O2638   2.438       .  S
Zr2636     O2639   2.368       .  S
Zr2636     O2640   2.375       .  S
O2637      H2674   0.990       .  S
O2638      H2669   0.990       .  S
O2638      H2683   0.990       .  S
O2640      H2666   0.964       .  S
O2641     Zr2651   2.394       .  S
O2642     Zr2651   2.400       .  S
O2642      H2667   0.966       .  S
C2643      C2694   1.477       .  S
C2644      C2704   1.519       .  S
O2646      H2682   0.990       .  S
O2647      C2649   1.272       .  A
O2648      C2649   1.291       .  A
C2649      C2689   1.479       .  S
O2650     Zr2651   2.436       .  S
O2650      H2679   0.991       .  S
Zr2651     O2654   2.446       .  S
Zr2651     O2655   2.449       .  S
Zr2651     O2656   2.424       .  S
O2652      C2657   1.284       .  A
O2653      H2670   0.990       .  S
O2653      H2685   0.990       .  S
O2654      H2671   0.991       .  S
O2655      H2675   0.988       .  S
O2655      H2684   0.990       .  S
O2656      C2657   1.268       .  A
C2657      C2706   1.483       .  S
O2658      H2677   0.990       .  S
O2658      H2681   0.990       .  S
O2659      H2673   0.990       .  S
O2660      C2664   1.293       .  A
O2661      C2664   1.303       .  A
O2662      H2672   0.990       .  S
O2663      H2676   0.990       .  S
C2664      C2791   1.506       .  S
C2687      C2688   1.541       .  S
C2687      C2693   1.553       .  S
C2687      C2691   1.538       .  S
C2687      C2837   1.553       .  S
C2688      H2695   1.086       .  S
C2688      C2689   1.365       .  D
C2689      C2690   1.540       .  S
C2690      C2694   1.526       .  S
C2690      C2692   1.546       .  S
C2690      H2696   1.111       .  S
C2691      H2697   1.086       .  S
C2691      C2692   1.367       .  D
C2693      H2698   1.077       .  S
C2693      C2694   1.368       .  D
C2699      C2700   1.522       .  S
C2699      C2705   1.515       .  S
C2699      C2703   1.533       .  S
C2699      C2846   1.542       .  S
C2700      H2707   1.089       .  S
C2700      C2701   1.348       .  D
C2701      C2754   1.499       .  S
C2701      C2702   1.586       .  S
C2702      C2706   1.562       .  S
C2702      C2704   1.564       .  S
C2702      H2708   1.110       .  S
C2703      H2709   1.081       .  S
C2703      C2704   1.389       .  D
C2705      H2710   1.081       .  S
C2705      C2706   1.360       .  D
Zr2711     O2712   2.448   1_554  S
Zr2711     O2714   2.476   1_554  S
Zr2711     O2717   2.457       .  S
O2712      H2768   0.990   1_556  S
O2712      H2776   0.990       .  S
O2713      C2733   1.278       .  A
O2715      C2734   1.289   1_554  A
O2716      C2735   1.277       .  A
O2717      C2734   1.285   1_554  A
O2718      C2733   1.277       .  A
O2719     Zr2724   2.396       .  S
O2719     Zr2726   2.373       .  S
O2720      H2755   0.967       .  S
O2721     Zr2741   2.411       .  S
O2721      H2758   0.965       .  S
O2722     Zr2741   2.350   1_554  S
Zr2723     O2748   2.437       .  S
Zr2723     O2742   2.526       .  S
Zr2723     O2750   2.492       .  S
Zr2723     O2738   2.425       .  S
Zr2723     O2729   2.398       .  S
Zr2723     O2730   2.446       .  S
Zr2723     O2731   2.371       .  S
Zr2723     O2732   2.393       .  S
Zr2724     O2736   2.435       .  S
Zr2724     O2737   2.418       .  S
Zr2724     O2730   2.393       .  S
Zr2724     O2731   2.388       .  S
Zr2725     O2751   2.486       .  S
Zr2725     O2729   2.366       .  S
Zr2725     O2732   2.417       .  S
Zr2726     O2753   2.437       .  S
Zr2726     O2728   2.438       .  S
Zr2726     O2729   2.381       .  S
Zr2726     O2730   2.386       .  S
O2727      H2764   0.990       .  S
O2728      H2759   0.990       .  S
O2728      H2773   0.990       .  S
O2730      H2756   0.963       .  S
C2733      C2784   1.467       .  S
C2734      C2794   1.491       .  S
O2736      H2772   0.990       .  S
O2737      C2739   1.275       .  A
O2738      C2739   1.285       .  A
C2739      C2779   1.455       .  S
O2740     Zr2741   2.438       .  S
O2740      H2769   0.990       .  S
Zr2741     O2744   2.436       .  S
Zr2741     O2745   2.441       .  S
Zr2741     O2746   2.403       .  S
O2743      H2760   0.990       .  S
O2743      H2775   0.990       .  S
O2744      H2761   0.989       .  S
O2745      H2765   0.990       .  S
O2745      H2774   0.990       .  S
O2746      C2747   1.273       .  A
C2747      C2796   1.501       .  S
O2748      H2767   0.990       .  S
O2748      H2771   0.991       .  S
O2749      H2763   0.990       .  S
O2749      H2770   0.990       .  S
O2750      C2754   1.297       .  A
O2751      C2754   1.296       .  A
O2752      H2762   0.990       .  S
O2753      H2766   0.990       .  S
C2777      C2778   1.533       .  S
C2777      C2783   1.533       .  S
C2777      C2781   1.548       .  S
C2777      C2805   1.530       .  S
C2778      H2785   1.082       .  S
C2778      C2779   1.360       .  D
C2779      C2780   1.523       .  S
C2780      C2784   1.530       .  S
C2780      C2782   1.540       .  S
C2780      H2786   1.111       .  S
C2781      H2787   1.084   1_455  S
C2781      C2782   1.371       .  D
C2783      H2788   1.088       .  S
C2783      C2784   1.359       .  D
C2789      C2790   1.520       .  S
C2789      C2795   1.542       .  S
C2789      C2793   1.519       .  S
C2789      C2814   1.538       .  S
C2790      H2797   1.088       .  S
C2790      C2791   1.357       .  D
C2791      C2792   1.594       .  S
C2792      C2796   1.558       .  S
C2792      C2794   1.561       .  S
C2792      H2798   1.110       .  S
C2793      H2799   1.083       .  S
C2793      C2794   1.366       .  D
C2795      H2800   1.075       .  S
C2795      C2796   1.364       .  D
C2801      C2802   1.392       .  A
C2801      C2806   1.392       .  A
C2801      H2811   1.086       .  S
C2802      C2803   1.404       .  A
C2802      C2807   1.473       .  S
C2803      C2808   1.505   1_455  S
C2803      C2804   1.408       .  A
C2804      C2805   1.417       .  A
C2804      H2809   1.079   1_455  S
C2805      C2806   1.434       .  A
C2806      C2810   1.517       .  S
C2807      C2812   1.411       .  A
C2807      C2816   1.396       .  A
C2808      H2824   1.110       .  S
C2808      H2825   1.111       .  S
C2808      H2826   1.111       .  S
C2810      H2821   1.111       .  S
C2810      H2822   1.107       .  S
C2810      H2823   1.108       .  S
C2812      C2817   1.508       .  S
C2812      C2813   1.399       .  A
C2813      C2814   1.409       .  A
C2813      H2818   1.084       .  S
C2814      C2815   1.422       .  A
C2815      C2819   1.501       .  S
C2815      C2816   1.402       .  A
C2816      H2820   1.084       .  S
C2817      H2827   1.111       .  S
C2817      H2828   1.109       .  S
C2817      H2829   1.111       .  S
C2819      H2830   1.109       .  S
C2819      H2831   1.109       .  S
C2819      H2832   1.111       .  S
C2833      C2834   1.401       .  A
C2833      C2838   1.411   1_554  A
C2834      C2835   1.411       .  A
C2835      C2840   1.512       .  S
C2835      C2836   1.400   1_554  A
C2836      C2837   1.415       .  A
C2836      H2841   1.070       .  S
C2837      C2838   1.430       .  A
C2838      C2842   1.512       .  S
C2839      C2844   1.414       .  A
C2839      C2848   1.405       .  A
C2840      H2856   1.109       .  S
C2840      H2857   1.111       .  S
C2840      H2858   1.111       .  S
C2842      H2853   1.107       .  S
C2842      H2854   1.111       .  S
C2842      H2855   1.107       .  S
C2844      C2849   1.510       .  S
C2844      C2845   1.397       .  A
C2845      C2846   1.410       .  A
C2845      H2850   1.084       .  S
C2846      C2847   1.417       .  A
C2847      C2851   1.500       .  S
C2847      C2848   1.407       .  A
C2848      H2852   1.084       .  S
C2849      H2859   1.111       .  S
C2849      H2860   1.108       .  S
C2849      H2861   1.111       .  S
C2851      H2863   1.107       .  S
C2851      H2864   1.111       .  S
C2865      C2866   1.401       .  A
C2865      C2870   1.405       .  A
C2865      H2875   1.085       .  S
C2866      C2867   1.411   1_565  A
C2866      C2871   1.478       .  S
C2867      C2868   1.398       .  A
C2868      C2869   1.410   1_545  A
C2868      H2873   1.077       .  S
C2869      C2870   1.426       .  A
C2870      C2874   1.510   1_655  S
C2871      C2876   1.406       .  A
C2871      C2880   1.393       .  A
C2872      H2889   1.106       .  S
C2872      H2890   1.111       .  S
C2874      H2885   1.110       .  S
C2874      H2886   1.111       .  S
C2874      H2887   1.104       .  S
C2876      C2877   1.410       .  A
C2877      C2878   1.418       .  A
C2877      H2882   1.077       .  S
C2878      C2879   1.432       .  A
C2879      C2883   1.515       .  S
C2879      C2880   1.394       .  A
C2880      H2884   1.086       .  S
C2881      H2891   1.111       .  S
C2881      H2893   1.107       .  S
C2883      H2894   1.111       .  S
C2883      H2895   1.100       .  S
C2883      H2896   1.110       .  S
C2897      C2898   1.398       .  A
C2897      C2902   1.403       .  A
C2897      H2907   1.084       .  S
C2898      C2899   1.412       .  A
C2898      C2903   1.475       .  S
C2899      C2904   1.512       .  S
C2899      C2900   1.397       .  A
C2900      C2901   1.408       .  A
C2900      H2905   1.076       .  S
C2901      C2902   1.429       .  A
C2902      C2906   1.512       .  S
C2903      C2908   1.404       .  A
C2903      C2912   1.394       .  A
C2904      H2920   1.110       .  S
C2904      H2921   1.106       .  S
C2904      H2922   1.111       .  S
C2906      H2917   1.111       .  S
C2906      H2918   1.111       .  S
C2906      H2919   1.104       .  S
C2908      C2913   1.508       .  S
C2908      C2909   1.406       .  A
C2911      C2915   1.514       .  S
C2911      C2912   1.394       .  A
C2912      H2916   1.086       .  S
C2913      H2923   1.111       .  S
C2913      H2924   1.110       .  S
C2913      H2925   1.107       .  S
C2915      H2926   1.111       .  S
C2915      H2928   1.110       .  S
