geometry optimzed in LAMMPS
_audit_creation_date              2020-11-30 
_audit_creation_method            'lammps2cif' 
_symmetry_space_group_name_H-M    'P1' 
_symmetry_Int_Tables_number       1 
_symmetry_cell_setting            triclinic 
loop_ 
_symmetry_equiv_pos_as_xyz 
  x,y,z 
_cell_length_a                    52.47990915 
_cell_length_b                    52.429817530736095 
_cell_length_c                    50.1655092645672 
_cell_angle_alpha                 90.09566143362989 
_cell_angle_beta                  89.99592799207996 
_cell_angle_gamma                 90.12325318758106 
loop_ 
_atom_site_label 
_atom_site_type_symbol 
_atom_site_fract_x 
_atom_site_fract_y 
_atom_site_fract_z 
_atom_site_charge 
N1          N  0.51731333  0.21638495  0.22026653    -0.27400
N2          N  0.52046207  0.23833107  0.20779336    -0.35200
C3          C  0.53192408  0.23410228  0.18425527     0.01000
C4          C  0.53610364  0.20815376  0.18162912     0.07000
C5          C  0.52648720  0.19751341  0.20485206    -0.06100
H6          H  0.53703835  0.24893243  0.17025994     0.07700
H7          H  0.52693878  0.17764583  0.21060624     0.08900
Cu8        Cu  0.51015844  0.27311669  0.22379422     0.44200
Cu9        Cu  0.50198186  0.21357045  0.25826288     0.42000
Cu10       Cu  0.48567559  0.27374725  0.29101352     0.43900
N11         N  0.50108418  0.30615641  0.24408771    -0.34700
N12         N  0.49289827  0.30670040  0.26901018    -0.29000
C13         C  0.49009039  0.33121515  0.27654571    -0.05100
C14         C  0.49662992  0.34666633  0.25520757     0.07100
C15         C  0.50342962  0.33013888  0.23499494     0.00900
H16         H  0.48369693  0.33732154  0.29603736     0.08600
H17         H  0.51010845  0.33515124  0.21527731     0.07700
N18         N  0.47868365  0.23779202  0.30721259    -0.36200
N19         N  0.48500123  0.21608003  0.29551321    -0.28400
C20         C  0.47691602  0.19650034  0.31063230    -0.03600
C21         C  0.46463656  0.20625675  0.33285619     0.05000
C22         C  0.46619790  0.23253408  0.32998543     0.03100
H23         H  0.47878338  0.17664457  0.30513115     0.08200
H24         H  0.45840972  0.24686777  0.34318854     0.07000
O25         O  0.53669526  0.42505835  0.23069827    -0.73000
O26         O  0.46018566  0.42381219  0.22941495    -0.74000
O27         O  0.49783205  0.46273345  0.22888685    -0.62600
O28         O  0.49888006  0.38598757  0.23171425    -0.71000
O29         O  0.49565627  0.38748351  0.27582194    -0.70600
O30         O  0.49995881  0.46384432  0.27308538    -0.61800
O31         O  0.45952602  0.42777595  0.27348587    -0.74300
O32         O  0.53619103  0.42359521  0.27492509    -0.73100
Cu33       Cu  0.49843480  0.42432242  0.22861463     1.04600
Cu34       Cu  0.49781106  0.42572706  0.27588106     1.04300
C35         C  0.54850310  0.42416453  0.25294026     0.93200
C36         C  0.44781380  0.42609749  0.25120084     0.92300
C37         C  0.49905031  0.47533350  0.25068292     0.84500
C38         C  0.49701286  0.37468147  0.25420603     0.90700
N39         N  0.70712156  0.44532650  0.21838411    -0.27400
N40         N  0.68526110  0.45061322  0.20656281    -0.35200
C41         C  0.68993564  0.46436090  0.18448088     0.01000
C42         C  0.71604654  0.46786294  0.18212679     0.07000
C43         C  0.72630511  0.45540576  0.20400748    -0.06100
H44         H  0.67530465  0.47124485  0.17113732     0.07700
H45         H  0.74619014  0.45426110  0.20951310     0.08900
Cu46       Cu  0.64992399  0.43960226  0.22135855     0.44200
Cu47       Cu  0.70968911  0.42577239  0.25426135     0.42000
Cu48       Cu  0.64966514  0.40897764  0.28597331     0.43900
N49         N  0.61685624  0.42901785  0.24132493    -0.34700
N50         N  0.61671036  0.41874014  0.26538823    -0.29000
C51         C  0.59239706  0.41554915  0.27332163    -0.05100
C52         C  0.57653088  0.42390801  0.25313636     0.07100
C53         C  0.59265852  0.43223286  0.23313117     0.00900
H54         H  0.58670914  0.40748146  0.29225497     0.08600
H55         H  0.58721880  0.44051028  0.21423125     0.07700
N56         N  0.68523189  0.40055561  0.30195639    -0.36200
N57         N  0.70704150  0.40692463  0.29055131    -0.28400
C58         C  0.72640123  0.39882763  0.30591583    -0.03600
C59         C  0.71638178  0.38659372  0.32805852     0.05000
C60         C  0.69016737  0.38805644  0.32477769     0.03100
H61         H  0.74632154  0.40118407  0.30092570     0.08200
H62         H  0.67565383  0.38066090  0.33799703     0.07000
N63         N  0.47964567  0.63329956  0.21366698    -0.27400
N64         N  0.47372208  0.61145514  0.20201495    -0.35200
C65         C  0.45985452  0.61627450  0.18005326     0.01000
C66         C  0.45700543  0.64246159  0.17767600     0.07000
C67         C  0.46989563  0.65259297  0.19935681    -0.06100
H68         H  0.45243143  0.60172467  0.16685017     0.07700
H69         H  0.47150985  0.67248749  0.20484328     0.08900
Cu70       Cu  0.48396899  0.57608431  0.21700929     0.44200
Cu71       Cu  0.49914101  0.63611550  0.24942618     0.42000
Cu72       Cu  0.51151285  0.57681732  0.28330919     0.43900
N73         N  0.49404236  0.54341553  0.23771642    -0.34700
N74         N  0.50316561  0.54370544  0.26229320    -0.29000
C75         C  0.50641289  0.51955287  0.27058325    -0.05100
C76         C  0.49926445  0.50332978  0.25014498     0.07100
C77         C  0.49158118  0.51905927  0.22957817     0.00900
H78         H  0.51357101  0.51421852  0.29000848     0.08600
H79         H  0.48417923  0.51325571  0.21036937     0.07700
N80         N  0.52060014  0.61232220  0.29905069    -0.36200
N81         N  0.51626245  0.63401839  0.28652829    -0.28400
C82         C  0.52483123  0.65345576  0.30159296    -0.03600
C83         C  0.53519530  0.64357558  0.32482375     0.05000
C84         C  0.53210969  0.61735992  0.32241263     0.03100
H85         H  0.52398294  0.67325845  0.29568061     0.08200
H86         H  0.53786474  0.60285098  0.33646767     0.07000
N87         N  0.29119653  0.39610939  0.21852243    -0.27400
N88         N  0.31249379  0.39529991  0.20447234    -0.35200
C89         C  0.30780447  0.38345969  0.18115379     0.01000
C90         C  0.28227187  0.37661177  0.18041581     0.07000
C91         C  0.27240746  0.38498964  0.20449826    -0.06100
H92         H  0.32196059  0.38026996  0.16584415     0.07700
H93         H  0.25306326  0.38289210  0.21160156     0.08900
Cu94       Cu  0.34714291  0.40963970  0.21788751     0.44200
Cu95       Cu  0.28807746  0.41199758  0.25620315     0.42000
Cu96       Cu  0.34648101  0.43569575  0.28458425     0.43900
N97         N  0.37975461  0.42122921  0.23806163    -0.34700
N98         N  0.37950004  0.42999223  0.26279283    -0.29000
C99         C  0.40362377  0.43344291  0.27112141    -0.05100
C100        C  0.41982839  0.42665641  0.25059813     0.07100
C101        C  0.40408514  0.41914628  0.22988163     0.00900
H102        H  0.40895057  0.44000095  0.29081531     0.08600
H103        H  0.40988885  0.41173541  0.21067868     0.07700
N104        N  0.31122800  0.43968413  0.30263431    -0.36200
N105        N  0.28975881  0.43072958  0.29252171    -0.28400
C106        C  0.27024728  0.43772430  0.30832018    -0.03600
C107        C  0.27991262  0.45200542  0.32930482     0.05000
C108        C  0.30600300  0.45270235  0.32502594     0.03100
H109        H  0.25041434  0.43389487  0.30399143     0.08200
H110        H  0.32019967  0.46253265  0.33684832     0.07000
N111        N  0.51417214  0.62737739  0.70996295    -0.27400
N112        N  0.52073098  0.60572719  0.69839315    -0.35200
C113        C  0.53390062  0.61093709  0.67605193     0.01000
C114        C  0.53567320  0.63722910  0.67338632     0.07000
C115        C  0.52288543  0.64693556  0.69533592    -0.06100
H116        H  0.54159744  0.59655836  0.66287115     0.07700
H117        H  0.52050618  0.66673859  0.70080063     0.08900
Cu118      Cu  0.51168699  0.57029406  0.71386928     0.44200
Cu119      Cu  0.49437774  0.62980470  0.74546926     0.42000
Cu120      Cu  0.47729281  0.57078958  0.77702132     0.43900
N121        N  0.50017488  0.53777917  0.73388690    -0.34700
N122        N  0.48831674  0.53793960  0.75715945    -0.29000
C123        C  0.48431130  0.51375007  0.76498461    -0.05100
C124        C  0.49377354  0.49770834  0.74551440     0.07100
C125        C  0.50367053  0.51350054  0.72608688     0.00900
H126        H  0.47492974  0.50828466  0.78331945     0.08600
H127        H  0.51308438  0.50780300  0.70784181     0.07700
N128        N  0.46824628  0.60624101  0.79263305    -0.36200
N129        N  0.47470459  0.62791294  0.78108728    -0.28400
C130        C  0.46642847  0.64746504  0.79608594    -0.03600
C131        C  0.45404273  0.63769039  0.81828441     0.05000
C132        C  0.45559425  0.61139534  0.81529314     0.03100
H133        H  0.46910645  0.66730225  0.79091094     0.08200
H134        H  0.44832063  0.59692184  0.82862351     0.07000
O135        O  0.53327843  0.42306970  0.76810197    -0.73000
O136        O  0.45693919  0.41691808  0.76814112    -0.74000
O137        O  0.49810133  0.38181900  0.76872302    -0.62600
O138        O  0.49230973  0.45797120  0.76783777    -0.71000
O139        O  0.49570322  0.45763384  0.72369178    -0.70600
O140        O  0.49510223  0.38111933  0.72456262    -0.61800
O141        O  0.45702645  0.41973191  0.72397110    -0.74300
O142        O  0.53345468  0.41939182  0.72398175    -0.73100
Cu143      Cu  0.49513883  0.41991990  0.76977256     1.04600
Cu144      Cu  0.49528670  0.41940045  0.72248014     1.04300
C145        C  0.54535479  0.42203139  0.74601014     0.93200
C146        C  0.44495239  0.41806769  0.74600576     0.92300
C147        C  0.49711107  0.36945299  0.74680608     0.84500
C148        C  0.49385227  0.46980541  0.74567686     0.90700
N149        N  0.28661224  0.44305011  0.71430350    -0.27400
N150        N  0.30834449  0.44877095  0.70239809    -0.35200
C151        C  0.30342729  0.46302406  0.68072762     0.01000
C152        C  0.27726828  0.46639036  0.67869988     0.07000
C153        C  0.26728596  0.45339742  0.70043674    -0.06100
H154        H  0.31790434  0.46998135  0.66722608     0.07700
H155        H  0.24745654  0.45159022  0.70593526     0.08900
Cu156      Cu  0.34376481  0.43666324  0.71588129     0.44200
Cu157      Cu  0.28411706  0.42112825  0.74870833     0.42000
Cu158      Cu  0.34398462  0.39949069  0.77654930     0.43900
N159        N  0.37677817  0.42403697  0.73451956    -0.34700
N160        N  0.37681815  0.41147141  0.75735641    -0.29000
C161        C  0.40104866  0.40751168  0.76502986    -0.05100
C162        C  0.41698999  0.41768896  0.74586319     0.07100
C163        C  0.40101919  0.42793978  0.72676475     0.00900
H164        H  0.40661639  0.39767387  0.78304781     0.08600
H165        H  0.40659331  0.43803675  0.70888845     0.07700
N166        N  0.30868937  0.38938762  0.79172653    -0.36200
N167        N  0.28684642  0.39791654  0.78214117    -0.28400
C168        C  0.26767213  0.38885810  0.79722927    -0.03600
C169        C  0.27794324  0.37366751  0.81705593     0.05000
C170        C  0.30399007  0.37435563  0.81286760     0.03100
H171        H  0.24771936  0.39289469  0.79388148     0.08200
H172        H  0.31852774  0.36519195  0.82474018     0.07000
N173        N  0.51906345  0.21210650  0.78557337    -0.27400
N174        N  0.52381912  0.23418454  0.79732332    -0.35200
C175        C  0.53698397  0.22993118  0.81985857     0.01000
C176        C  0.54064130  0.20387420  0.82252352     0.07000
C177        C  0.52888545  0.19319977  0.80041551    -0.06100
H178        H  0.54347533  0.24480468  0.83319802     0.07700
H179        H  0.52814564  0.17323304  0.79500659     0.08900
Cu180      Cu  0.51334693  0.26923345  0.78165474     0.44200
Cu181      Cu  0.50079939  0.20871124  0.74916773     0.42000
Cu182      Cu  0.48654478  0.26780744  0.71532550     0.43900
N183        N  0.50385042  0.30167857  0.76023968    -0.34700
N184        N  0.49512383  0.30105842  0.73552461    -0.29000
C185        C  0.49167866  0.32504199  0.72685555    -0.05100
C186        C  0.49827489  0.34152731  0.74721413     0.07100
C187        C  0.50586620  0.32613626  0.76811201     0.00900
H188        H  0.48439331  0.33005201  0.70738551     0.08600
H189        H  0.51255129  0.33223879  0.78750620     0.07700
N190        N  0.47627986  0.23234480  0.70092016    -0.36200
N191        N  0.48202080  0.21070202  0.71295644    -0.28400
C192        C  0.47225647  0.19119207  0.69885154    -0.03600
C193        C  0.45943404  0.20110519  0.67714378     0.05000
C194        C  0.46232132  0.22725001  0.67908202     0.03100
H195        H  0.47353714  0.17135833  0.70456404     0.08200
H196        H  0.45469923  0.24153093  0.66576671     0.07000
N197        N  0.70400729  0.40559867  0.71468284    -0.27400
N198        N  0.68275374  0.40158155  0.70117995    -0.35200
C199        C  0.68829374  0.38872337  0.67872849     0.01000
C200        C  0.71434749  0.38459132  0.67795701     0.07000
C201        C  0.72367694  0.39561682  0.70109139    -0.06100
H202        H  0.67432654  0.38290738  0.66405347     0.07700
H203        H  0.74323454  0.39592389  0.70789924     0.08900
Cu204      Cu  0.64710404  0.41294425  0.71424837     0.44200
Cu205      Cu  0.70532251  0.42379235  0.75124715     0.42000
Cu206      Cu  0.64490038  0.44323983  0.77908176     0.43900
N207        N  0.61360190  0.42208922  0.73382268    -0.34700
N208        N  0.61285346  0.43232642  0.75791606    -0.29000
C209        C  0.58847507  0.43379446  0.76597530    -0.05100
C210        C  0.57319285  0.42421341  0.74588949     0.07100
C211        C  0.58967471  0.41711021  0.72572847     0.00900
H212        H  0.58236258  0.44128125  0.78504210     0.08600
H213        H  0.58472251  0.40830774  0.70689761     0.07700
N214        N  0.67966746  0.45086523  0.79681088    -0.36200
N215        N  0.70170455  0.44331213  0.78686999    -0.28400
C216        C  0.72057698  0.45108962  0.80304937    -0.03600
C217        C  0.70993973  0.46432335  0.82422135     0.05000
C218        C  0.68391443  0.46379538  0.81952979     0.03100
H219        H  0.74058866  0.44787393  0.79919117     0.08200
H220        H  0.66905543  0.47210849  0.83167366     0.07000
N221        N  0.01070988  0.71461071  0.70682294    -0.27400
N222        N  0.01602877  0.73675796  0.69555943    -0.35200
C223        C  0.02927773  0.73264145  0.67301391     0.01000
C224        C  0.03248771  0.70657703  0.66981820     0.07000
C225        C  0.02039124  0.69582137  0.69171395    -0.06100
H226        H  0.03626114  0.74764524  0.66015638     0.07700
H227        H  0.01923791  0.67583851  0.69686124     0.08900
Cu228      Cu  0.00666011  0.77165282  0.71209182     0.44200
Cu229      Cu  0.99159404  0.71047402  0.74284165     0.42000
Cu230      Cu  0.97973712  0.76908877  0.77812038     0.43900
N231        N  0.99907790  0.80362269  0.73491319    -0.34700
N232        N  0.99019098  0.80261079  0.75954171    -0.29000
C233        C  0.98824568  0.82642909  0.76927429    -0.05100
C234        C  0.99605255  0.84316934  0.74968073     0.07100
C235        C  0.00273332  0.82813864  0.72814601     0.00900
H236        H  0.98107247  0.83118938  0.78887733     0.08600
H237        H  0.00981884  0.83451121  0.70902370     0.07700
N238        N  0.96838736  0.73376212  0.79188946    -0.36200
N239        N  0.97264860  0.71211828  0.77917300    -0.28400
C240        C  0.96245365  0.69283610  0.79333440    -0.03600
C241        C  0.95109578  0.70289855  0.81605224     0.05000
C242        C  0.95534386  0.72894475  0.81433517     0.03100
H243        H  0.96293998  0.67305660  0.78722187     0.08200
H244        H  0.94951703  0.74350618  0.82833907     0.07000
O245        O  0.03457390  0.91955038  0.77320105    -0.73000
O246        O  0.95832653  0.92186349  0.77612831    -0.74000
O247        O  0.99523846  0.88239791  0.77344478    -0.62600
O248        O  0.99771804  0.95901112  0.77544258    -0.71000
O249        O  0.99305173  0.95963406  0.73142409    -0.70600
O250        O  0.99695647  0.88369979  0.72921533    -0.61800
O251        O  0.95697567  0.91969339  0.73191879    -0.74300
O252        O  0.03323628  0.92365087  0.72915427    -0.73100
Cu253      Cu  0.99652698  0.92066878  0.77616062     1.04600
Cu254      Cu  0.99501309  0.92171149  0.72888735     1.04300
C255        C  0.04590496  0.92159715  0.75078359     0.93200
C256        C  0.94565546  0.92074245  0.75443656     0.92300
C257        C  0.99614833  0.87105072  0.75089586     0.84500
C258        C  0.99521205  0.97131149  0.75363172     0.90700
N259        N  0.20363404  0.89624310  0.78168739    -0.27400
N260        N  0.18193989  0.89016994  0.79346606    -0.35200
C261        C  0.18699670  0.87658710  0.81555368     0.01000
C262        C  0.21316975  0.87436662  0.81792456     0.07000
C263        C  0.22310631  0.88708692  0.79613998    -0.06100
H264        H  0.17270614  0.86933583  0.82913032     0.07700
H265        H  0.24299720  0.88921837  0.79093181     0.08900
Cu266      Cu  0.14671071  0.90142246  0.77920787     0.44200
Cu267      Cu  0.20579329  0.91579697  0.74604725     0.42000
Cu268      Cu  0.14609890  0.93150280  0.71403382     0.43900
N269        N  0.11399926  0.91390525  0.76027221    -0.34700
N270        N  0.11364718  0.92396501  0.73611647    -0.29000
C271        C  0.08935854  0.92850333  0.72905898    -0.05100
C272        C  0.07379292  0.92117984  0.74990855     0.07100
C273        C  0.08999132  0.91212330  0.76939799     0.00900
H274        H  0.08350624  0.93650886  0.71016731     0.08600
H275        H  0.08469727  0.90412285  0.78848824     0.07700
N276        N  0.18145560  0.93952764  0.69779057    -0.36200
N277        N  0.20320342  0.93392826  0.70962367    -0.28400
C278        C  0.22258075  0.94244150  0.69458252    -0.03600
C279        C  0.21262060  0.95410542  0.67209207     0.05000
C280        C  0.18640399  0.95182161  0.67488210     0.03100
H281        H  0.24240847  0.94077630  0.70015178     0.08200
H282        H  0.17184257  0.95880000  0.66152497     0.07000
N283        N  0.97774135  0.12894145  0.71642155    -0.27400
N284        N  0.96864980  0.10738914  0.70658190    -0.35200
C285        C  0.95322458  0.11276211  0.68593453     0.01000
C286        C  0.95266587  0.13902676  0.68256695     0.07000
C287        C  0.96846032  0.14857596  0.70234799    -0.06100
H288        H  0.94350001  0.09851552  0.67408562     0.07700
H289        H  0.97282395  0.16834593  0.70650975     0.08900
Cu290      Cu  0.97787190  0.07184510  0.72176722     0.44200
Cu291      Cu  0.00201638  0.13115918  0.74870576     0.42000
Cu292      Cu  0.01837236  0.07196726  0.78047399     0.43900
N293        N  0.98934706  0.03921156  0.74165669    -0.34700
N294        N  0.00335894  0.03933429  0.76356804    -0.29000
C295        C  0.00695574  0.01519848  0.77172758    -0.05100
C296        C  0.99495524  0.99918552  0.75382743     0.07100
C297        C  0.98405076  0.01494709  0.73499122     0.00900
H298        H  0.01822552  0.00973057  0.78883992     0.08600
H299        H  0.97313269  0.00922337  0.71768125     0.07700
N300        N  0.03029449  0.10716647  0.79411725    -0.36200
N301        N  0.02417676  0.12892140  0.78259291    -0.28400
C302        C  0.03335309  0.14833129  0.79725820    -0.03600
C303        C  0.04588648  0.13829741  0.81918172     0.05000
C304        C  0.04361870  0.11208172  0.81637499     0.03100
H305        H  0.03064997  0.16823231  0.79242128     0.08200
H306        H  0.05022969  0.09754000  0.82997026     0.07000
N307        N  0.78777102  0.90322434  0.71902947    -0.27400
N308        N  0.80974443  0.89831101  0.70724910    -0.35200
C309        C  0.80545459  0.88533375  0.68455903     0.01000
C310        C  0.77944408  0.88207952  0.68169254     0.07000
C311        C  0.76881014  0.89374712  0.70388846    -0.06100
H312        H  0.82021479  0.87889794  0.67111284     0.07700
H313        H  0.74880172  0.89481754  0.70896260     0.08900
Cu314      Cu  0.84460699  0.90883964  0.72270113     0.44200
Cu315      Cu  0.78497597  0.92200634  0.75553377     0.42000
Cu316      Cu  0.84514584  0.93809469  0.78786069     0.43900
N317        N  0.87748356  0.91736673  0.74334963    -0.34700
N318        N  0.87785899  0.92693491  0.76774384    -0.29000
C319        C  0.90223181  0.92911948  0.77578615    -0.05100
C320        C  0.91776937  0.92083581  0.75525708     0.07100
C321        C  0.90149154  0.91358606  0.73501983     0.00900
H322        H  0.90818783  0.93682213  0.79482444     0.08600
H323        H  0.90667034  0.90599768  0.71569440     0.07700
N324        N  0.80970136  0.94918170  0.80213809    -0.36200
N325        N  0.78781693  0.94269283  0.79090219    -0.28400
C326        C  0.76859444  0.95283469  0.80514649    -0.03600
C327        C  0.77885871  0.96668585  0.82612104     0.05000
C328        C  0.80497990  0.96395713  0.82352451     0.03100
H329        H  0.74863549  0.95087961  0.80012623     0.08200
H330        H  0.81953258  0.97200351  0.83632081     0.07000
N331        N  0.02776888  0.13133188  0.22490407    -0.27400
N332        N  0.03274253  0.10986791  0.21209020    -0.35200
C333        C  0.04668260  0.11518783  0.19030751     0.01000
C334        C  0.05047225  0.14131957  0.18918400     0.07000
C335        C  0.03814173  0.15093416  0.21143749    -0.06100
H336        H  0.05305932  0.10109124  0.17604122     0.07700
H337        H  0.03688683  0.17068998  0.21752429     0.08900
Cu338      Cu  0.01986115  0.07439668  0.22438228     0.44200
Cu339      Cu  0.00705249  0.13300319  0.26004048     0.42000
Cu340      Cu  0.98387021  0.07304132  0.28612172     0.43900
N341        N  0.00676366  0.04121043  0.24213440    -0.34700
N342        N  0.99466315  0.04066798  0.26525621    -0.29000
C343        C  0.99040029  0.01625366  0.27214358    -0.05100
C344        C  0.99990680  0.00078334  0.25218601     0.07100
C345        C  0.01005882  0.01717063  0.23342165     0.00900
H346        H  0.98084112  0.01024872  0.29019340     0.08600
H347        H  0.01970319  0.01201280  0.21513333     0.07700
N348        N  0.97543067  0.10814890  0.30296753    -0.36200
N349        N  0.98461935  0.12996394  0.29390004    -0.28400
C350        C  0.97621832  0.14909505  0.30943035    -0.03600
C351        C  0.96074491  0.13888090  0.32907483     0.05000
C352        C  0.96060798  0.11285732  0.32429080     0.03100
H353        H  0.98058075  0.16902430  0.30623548     0.08200
H354        H  0.95071034  0.09835507  0.33562441     0.07000
O355        O  0.00161633  0.88390417  0.27075897    -0.73000
O356        O  0.99852259  0.96025133  0.27305710    -0.74000
O357        O  0.96176714  0.92034282  0.27290470    -0.62600
O358        O  0.03837811  0.92364137  0.27089218    -0.71000
O359        O  0.03737702  0.92180220  0.22667990    -0.70600
O360        O  0.96082187  0.92467708  0.22889268    -0.61800
O361        O  0.00073734  0.96142065  0.22885615    -0.74300
O362        O  0.99761551  0.88502053  0.22669194    -0.73100
Cu363      Cu  0.00010790  0.92199523  0.27346575     1.04600
Cu364      Cu  0.99908063  0.92325891  0.22621070     1.04300
C365        C  0.99967602  0.87245525  0.24837138     0.93200
C366        C  0.99968971  0.97285306  0.25132371     0.92300
C367        C  0.94924262  0.92250496  0.25119180     0.84500
C368        C  0.04992960  0.92277245  0.24848000     0.90700
N369        N  0.79058326  0.90866756  0.29008694    -0.27400
N370        N  0.81198056  0.89959796  0.30014918    -0.35200
C371        C  0.80628010  0.88448858  0.32095161     0.01000
C372        C  0.77997554  0.88400356  0.32420004     0.07000
C373        C  0.77075048  0.89966925  0.30419058    -0.06100
H374        H  0.82039924  0.87465504  0.33278180     0.07700
H375        H  0.75105449  0.90393622  0.29972894     0.08900
Cu376      Cu  0.84794502  0.90776395  0.28474017     0.44200
Cu377      Cu  0.78896924  0.93191422  0.25696967     0.42000
Cu378      Cu  0.84843259  0.94440036  0.22340668     0.43900
N379        N  0.88106687  0.91791968  0.26441851    -0.34700
N380        N  0.88102246  0.93040632  0.24152278    -0.29000
C381        C  0.90517707  0.93347042  0.23314730    -0.05100
C382        C  0.92123884  0.92275386  0.25182945     0.07100
C383        C  0.90536326  0.91311734  0.27144056     0.00900
H384        H  0.91065698  0.94340824  0.21514225     0.08600
H385        H  0.91103022  0.90324019  0.28940217     0.07700
N386        N  0.81354254  0.95773743  0.21006864    -0.36200
N387        N  0.79179414  0.95297305  0.22236347    -0.28400
C388        C  0.77260635  0.96340970  0.20846752    -0.03600
C389        C  0.78273283  0.97548306  0.18633073     0.05000
C390        C  0.80879468  0.97155946  0.18807197     0.03100
H391        H  0.75275663  0.96223596  0.21415460     0.08200
H392        H  0.82322231  0.97770271  0.17407223     0.07000
N393        N  0.02067467  0.71371180  0.27908073    -0.27400
N394        N  0.02607489  0.73519956  0.29166198    -0.35200
C395        C  0.03986071  0.72981742  0.31349983     0.01000
C396        C  0.04321718  0.70362251  0.31477893     0.07000
C397        C  0.03067753  0.69405586  0.29262363    -0.06100
H398        H  0.04684750  0.74400083  0.32738869     0.07700
H399        H  0.02937956  0.67434832  0.28636595     0.08900
Cu400      Cu  0.01522945  0.77084268  0.27800978     0.44200
Cu401      Cu  0.00100841  0.71212190  0.24355754     0.42000
Cu402      Cu  0.98570938  0.77249864  0.21280052     0.43900
N403        N  0.00512618  0.80413555  0.25852259    -0.34700
N404        N  0.99537844  0.80469868  0.23422856    -0.29000
C405        C  0.99208272  0.82908098  0.22680664    -0.05100
C406        C  0.99987643  0.84454967  0.24756666     0.07100
C407        C  0.00797391  0.82818243  0.26738151     0.00900
H408        H  0.98424111  0.83504889  0.20787761     0.08600
H409        H  0.01571572  0.83334531  0.28664423     0.07700
N410        N  0.97501168  0.73760919  0.19736118    -0.36200
N411        N  0.98094313  0.71557079  0.20844620    -0.28400
C412        C  0.97075842  0.69656332  0.19399417    -0.03600
C413        C  0.95754425  0.70718570  0.17293004     0.05000
C414        C  0.96061888  0.73326104  0.17568025     0.03100
H415        H  0.97221616  0.67656388  0.19899846     0.09800
H416        H  0.95293641  0.74801383  0.16298264     0.07000
N417        N  0.20758401  0.91126019  0.20576514    -0.27400
N418        N  0.18559950  0.90505841  0.19463645    -0.35200
C419        C  0.19016132  0.89216972  0.17194355     0.01000
C420        C  0.21629955  0.89029895  0.16851597     0.07000
C421        C  0.22671594  0.90273639  0.19033282    -0.06100
H422        H  0.17547573  0.88440357  0.15913546     0.07700
H423        H  0.24670332  0.90449451  0.19528891     0.08900
Cu424      Cu  0.15041621  0.91296789  0.21165570     0.44200
Cu425      Cu  0.21060140  0.92892444  0.24254572     0.42000
Cu426      Cu  0.15164845  0.93765190  0.27912548     0.43900
N427        N  0.11788546  0.92003508  0.23403185    -0.34700
N428        N  0.11838807  0.92800067  0.25905815    -0.29000
C429        C  0.09433552  0.92984943  0.26814311    -0.05100
C430        C  0.07793348  0.92300874  0.24776159     0.07100
C431        C  0.09348339  0.91695121  0.22641408     0.00900
H432        H  0.08917129  0.93624488  0.28793602     0.08600
H433        H  0.08752841  0.91060496  0.20684317     0.07700
N434        N  0.18713033  0.94895051  0.29321037    -0.36200
N435        N  0.20860442  0.94553626  0.27992282    -0.28400
C436        C  0.22804008  0.95527986  0.29413834    -0.03600
C437        C  0.21834732  0.96557516  0.31744985     0.05000
C438        C  0.19231199  0.96121279  0.31615297     0.03100
H439        H  0.24766324  0.95544184  0.28758082     0.08200
H440        H  0.17812250  0.96654419  0.33075561     0.07000
O441        O  0.16517413  0.29347505  0.02909279    -0.73000
O442        O  0.12449211  0.25518967  0.97444909    -0.74000
O443        O  0.12665041  0.25579900  0.03130617    -0.62600
O444        O  0.16349379  0.29287713  0.97240882    -0.71000
O445        O  0.19240533  0.26213833  0.97128354    -0.70600
O446        O  0.15671271  0.22615628  0.03078887    -0.61800
O447        O  0.15359793  0.22457528  0.97457741    -0.74300
O448        O  0.19532050  0.26389367  0.02755849    -0.73100
Cu449      Cu  0.14390061  0.27540591  0.00180405     1.04600
Cu450      Cu  0.17549639  0.24314717  0.00099594     1.04300
C451        C  0.18659962  0.28477619  0.03699477     0.93200
C452        C  0.13258067  0.23368530  0.96598182     0.92300
C453        C  0.13614424  0.23518407  0.04057587     0.84500
C454        C  0.18384951  0.28332419  0.96255347     0.90700
O455        O  0.65602384  0.12359884  0.97656166    -0.73000
O456        O  0.69545944  0.08647344  0.03285943    -0.74000
O457        O  0.69477720  0.08583981  0.97613328    -0.62600
O458        O  0.65642034  0.12424785  0.03306270    -0.71000
O459        O  0.62716776  0.09367104  0.03347863    -0.70600
O460        O  0.66538861  0.05543635  0.97706390    -0.61800
O461        O  0.66587225  0.05622983  0.03373726    -0.74300
O462        O  0.62681811  0.09296428  0.97685789    -0.73100
Cu463      Cu  0.67672233  0.10609558  0.00466163     1.04600
Cu464      Cu  0.64531239  0.07353233  0.00532908     1.04300
C465        C  0.63527144  0.11406819  0.96765346     0.93200
C466        C  0.68686369  0.06553014  0.04231366     0.92300
C467        C  0.68600970  0.06460258  0.96745285     0.84500
C468        C  0.63558888  0.11500709  0.04215579     0.90700
O469        O  0.86547075  0.59019710  0.96971022    -0.73000
O470        O  0.82874515  0.55386708  0.02869932    -0.74000
O471        O  0.82753911  0.55195616  0.97223303    -0.62600
O472        O  0.86651938  0.59207445  0.02618637    -0.71000
O473        O  0.83650543  0.62178771  0.02653107    -0.70600
O474        O  0.79777350  0.58192463  0.97172421    -0.61800
O475        O  0.79846767  0.58329397  0.02816344    -0.74300
O476        O  0.83607490  0.62053852  0.97006212    -0.73100
Cu477      Cu  0.84810494  0.57101867  0.99920059     1.04600
Cu478      Cu  0.81614619  0.60294421  0.99906577     1.04300
C479        C  0.85670787  0.61119200  0.96067208     0.93200
C480        C  0.80780933  0.56276301  0.03777913     0.92300
C481        C  0.80640052  0.56054739  0.96346236     0.84500
C482        C  0.85767024  0.61308631  0.03513568     0.90700
O483        O  0.30410467  0.76710880  0.02532226    -0.73000
O484        O  0.34306633  0.72682671  0.97059008    -0.74000
O485        O  0.34222768  0.72867361  0.02685425    -0.62600
O486        O  0.30457436  0.76479339  0.96909089    -0.71000
O487        O  0.33397457  0.79520145  0.96825432    -0.70600
O488        O  0.37233459  0.75840438  0.02614259    -0.61800
O489        O  0.37249091  0.75723664  0.96928764    -0.74300
O490        O  0.33423208  0.79680341  0.02469174    -0.73100
Cu491      Cu  0.32248499  0.74581274  0.99799633     1.04600
Cu492      Cu  0.35433743  0.77794133  0.99707587     1.04300
C493        C  0.31297222  0.78846735  0.03354041     0.93200
C494        C  0.36390137  0.73576350  0.96119524     0.92300
C495        C  0.36323582  0.73765566  0.03564929     0.84500
C496        C  0.31302169  0.78576997  0.95965157     0.90700
O497        O  0.12366226  0.58981778  0.52465793    -0.73000
O498        O  0.16038069  0.54784336  0.47041014    -0.74000
O499        O  0.16041696  0.55039467  0.52695851    -0.62600
O500        O  0.12398494  0.58755207  0.46800038    -0.71000
O501        O  0.15470280  0.61666962  0.46765087    -0.70600
O502        O  0.19125503  0.57934895  0.52567421    -0.61800
O503        O  0.19113268  0.57688809  0.46938921    -0.74300
O504        O  0.15420111  0.61913590  0.52399657    -0.73100
Cu505      Cu  0.14100041  0.56793576  0.49756582     1.04600
Cu506      Cu  0.17389438  0.59901740  0.49664591     1.04300
C507        C  0.13290853  0.61094155  0.53296373     0.93200
C508        C  0.18171190  0.55570474  0.46133696     0.92300
C509        C  0.18180270  0.55891408  0.53542514     0.84500
C510        C  0.13370370  0.60799622  0.45847748     0.90700
O511        O  0.33228036  0.04448298  0.52783149    -0.73000
O512        O  0.37269198  0.08481425  0.47495452    -0.74000
O513        O  0.37003687  0.08287744  0.53135569    -0.62600
O514        O  0.33455869  0.04662560  0.47129328    -0.71000
O515        O  0.30487001  0.07667256  0.47139512    -0.70600
O516        O  0.33984634  0.11238652  0.53167701    -0.61800
O517        O  0.34313303  0.11496072  0.47531217    -0.74300
O518        O  0.30189732  0.07385212  0.52744310    -0.73100
Cu519      Cu  0.35342858  0.06366349  0.50137290     1.04600
Cu520      Cu  0.32139973  0.09551351  0.50144311     1.04300
C521        C  0.31071216  0.05265338  0.53592263     0.93200
C522        C  0.36442258  0.10632318  0.46680081     0.92300
C523        C  0.36059935  0.10337846  0.54100325     0.84500
C524        C  0.31394087  0.05596772  0.46192370     0.90700
O525        O  0.80462084  0.26892568  0.53045826    -0.73000
O526        O  0.84307445  0.23010770  0.47470212    -0.74000
O527        O  0.84173011  0.22969650  0.53105835    -0.62600
O528        O  0.80583162  0.26944866  0.47437154    -0.71000
O529        O  0.83642892  0.29866490  0.47487491    -0.70600
O530        O  0.87221346  0.25901504  0.53240256    -0.61800
O531        O  0.87383708  0.25911829  0.47575780    -0.74300
O532        O  0.83511183  0.29825963  0.53155039    -0.73100
Cu533      Cu  0.82279614  0.24854324  0.50257479     1.04600
Cu534      Cu  0.85550729  0.27978243  0.50364240     1.04300
C535        C  0.81365733  0.28976075  0.53976453     0.93200
C536        C  0.86465749  0.23828081  0.46653171     0.92300
C537        C  0.86259111  0.23810714  0.54085432     0.84500
C538        C  0.81510943  0.29047997  0.46589875     0.90700
O539        O  0.62248307  0.76102163  0.47459381    -0.73000
O540        O  0.66338638  0.79801094  0.53008770    -0.74000
O541        O  0.66133287  0.79856943  0.47341906    -0.62600
O542        O  0.62457151  0.76024196  0.53116270    -0.71000
O543        O  0.65395450  0.72991477  0.52962422    -0.70600
O544        O  0.69073681  0.76825233  0.47257171    -0.61800
O545        O  0.69286509  0.76781455  0.52901178    -0.74300
O546        O  0.65172556  0.73052516  0.47360352    -0.73100
Cu547      Cu  0.64193976  0.78054530  0.50240046     1.04600
Cu548      Cu  0.67336265  0.74810698  0.50114199     1.04300
C549        C  0.63057978  0.73976743  0.46548349     0.93200
C550        C  0.68451902  0.78889491  0.53838680     0.92300
C551        C  0.68194094  0.78936126  0.46386855     0.84500
C552        C  0.63326590  0.73882667  0.53920920     0.90700
C553        C  0.23520249  0.04154923  0.41047699    -0.17900
C554        C  0.22170734  0.02873224  0.39050165    -0.20100
C555        C  0.23383190  0.01027453  0.37470679     0.20600
C556        C  0.25981647  0.00474335  0.37899528    -0.03000
C557        C  0.27336171  0.01750456  0.39934097    -0.06000
C558        C  0.26096461  0.03602625  0.41508789     0.20900
C559        C  0.29923445  0.01167140  0.40398027     0.19000
C560        C  0.31140798  0.99338585  0.38799528    -0.17500
C561        C  0.29804111  0.98093081  0.36762968    -0.19700
C562        C  0.27224779  0.98641518  0.36302616     0.20500
C563        C  0.25862959  0.97383164  0.34283730    -0.32800
C564        C  0.23265019  0.97903465  0.33866384     0.01200
C565        C  0.22038343  0.99726498  0.35471613    -0.24100
C566        C  0.27450023  0.04862143  0.43524263    -0.28700
C567        C  0.30019056  0.04274832  0.44021396     0.06900
C568        C  0.31244592  0.02419021  0.42453697    -0.27300
H569        H  0.22541597  0.05574210  0.42243341     0.11600
H570        H  0.20181711  0.03323813  0.38740792     0.12700
H571        H  0.33125425  0.98872770  0.39123659     0.11800
H572        H  0.30787031  0.96689275  0.35554097     0.11100
H573        H  0.26817484  0.95965897  0.33067462     0.16400
H574        H  0.20048630  0.00162800  0.35141455     0.12400
H575        H  0.26486029  0.06279850  0.44736043     0.15200
H576        H  0.33227270  0.01966076  0.42817356     0.15000
C577        C  0.23444453  0.80494615  0.08519504    -0.17900
C578        C  0.22077384  0.81947150  0.10368952    -0.20100
C579        C  0.23199874  0.84087333  0.11579241     0.20600
C580        C  0.25716262  0.84784953  0.10904248    -0.03000
C581        C  0.27088551  0.83329480  0.09021870    -0.06000
C582        C  0.25951285  0.81163157  0.07839900     0.20900
C583        C  0.29601189  0.84031301  0.08338608     0.19000
C584        C  0.30716517  0.86184284  0.09533657    -0.17500
C585        C  0.29364548  0.87612184  0.11418331    -0.19700
C586        C  0.26870388  0.86921204  0.12127532     0.20500
C587        C  0.25517754  0.88312114  0.14053669    -0.32800
C588        C  0.23013994  0.87617851  0.14746490     0.01200
C589        C  0.21858736  0.85520495  0.13476656    -0.24100
C590        C  0.27341765  0.79699474  0.06006981    -0.28700
C591        C  0.29850145  0.80381046  0.05317913     0.06900
C592        C  0.30959992  0.82561764  0.06483940    -0.27300
H593        H  0.22540458  0.78840295  0.07624467     0.11600
H594        H  0.20148768  0.81386536  0.10866688     0.12700
H595        H  0.32641065  0.86751994  0.09026049     0.11800
H596        H  0.30275622  0.89253595  0.12330530     0.11100
H597        H  0.26411221  0.89942523  0.15006179     0.16400
H598        H  0.19941341  0.84956511  0.14016989     0.12400
H599        H  0.26461435  0.78035147  0.05104871     0.15200
H600        H  0.32889393  0.83107502  0.05965551     0.15000
C601        C  0.10800197  0.69985087  0.38599922    -0.17900
C602        C  0.12068421  0.68645729  0.40606300    -0.20100
C603        C  0.11480910  0.66076281  0.41095805     0.20600
C604        C  0.09623776  0.64832128  0.39527248    -0.03000
C605        C  0.08359967  0.66178643  0.37487598    -0.06000
C606        C  0.08933944  0.68774284  0.37043631     0.20900
C607        C  0.06504663  0.64936349  0.35914739     0.19000
C608        C  0.05943917  0.62356279  0.36380091    -0.17500
C609        C  0.07182527  0.61026962  0.38416903    -0.19700
C610        C  0.09010849  0.62251083  0.40012642     0.20500
C611        C  0.10226881  0.60946678  0.42092839    -0.32800
C612        C  0.12074416  0.62177940  0.43668243     0.01200
C613        C  0.12705726  0.64737148  0.43140483    -0.24100
C614        C  0.07616622  0.70120460  0.35069082    -0.28700
C615        C  0.05742618  0.68906405  0.33515084     0.06900
C616        C  0.05219360  0.66303781  0.33928708    -0.27300
H617        H  0.11270001  0.71975339  0.38275654     0.11600
H618        H  0.13492989  0.69624816  0.41790080     0.12700
H619        H  0.04529565  0.61373281  0.35185384     0.11800
H620        H  0.06699772  0.59041815  0.38753426     0.11100
H621        H  0.09750083  0.58965986  0.42471540     0.16400
H622        H  0.14125143  0.65700616  0.44347520     0.12400
H623        H  0.08064574  0.72113515  0.34737110     0.15200
H624        H  0.03770174  0.65352971  0.32751641     0.15000
C625        C  0.87098260  0.68965159  0.09114113    -0.17900
C626        C  0.88520061  0.70295431  0.11023097    -0.20100
C627        C  0.90682670  0.69179954  0.12176629     0.20600
C628        C  0.91411141  0.66693107  0.11417428    -0.03000
C629        C  0.89991342  0.65361557  0.09480185    -0.06000
C630        C  0.87826315  0.66503979  0.08320592     0.20900
C631        C  0.90747184  0.62891117  0.08697414     0.19000
C632        C  0.92889426  0.61761592  0.09872279    -0.17500
C633        C  0.94285499  0.63073246  0.11807542    -0.19700
C634        C  0.93564570  0.65537809  0.12586385     0.20500
C635        C  0.94965582  0.66868157  0.14509853    -0.32800
C636        C  0.94265776  0.69350933  0.15254923     0.01200
C637        C  0.92130003  0.70502503  0.14076986    -0.24100
C638        C  0.86437917  0.65169103  0.06379040    -0.28700
C639        C  0.87203805  0.62717173  0.05570528     0.06900
C640        C  0.89355018  0.61592602  0.06746398    -0.27300
H641        H  0.85438752  0.69866088  0.08247489     0.11600
H642        H  0.87929891  0.72199302  0.11594679     0.12700
H643        H  0.93487547  0.59862437  0.09291778     0.11800
H644        H  0.95934374  0.62164485  0.12688126     0.11100
H645        H  0.96625071  0.65984072  0.15398430     0.16400
H646        H  0.91568064  0.72408489  0.14672686     0.12400
H647        H  0.84778562  0.66047128  0.05484024     0.15200
H648        H  0.89948629  0.59695515  0.06149834     0.15000
C649        C  0.68524313  0.85346575  0.39152816    -0.17900
C650        C  0.69893783  0.86654742  0.37186014    -0.20100
C651        C  0.72486832  0.86133893  0.36763322     0.20600
C652        C  0.73702678  0.84256655  0.38317390    -0.03000
C653        C  0.72319656  0.82927805  0.40290014    -0.06000
C654        C  0.69722725  0.83489272  0.40724660     0.20900
C655        C  0.73542948  0.81049041  0.41836936     0.19000
C656        C  0.76127480  0.80512327  0.41403910    -0.17500
C657        C  0.77497977  0.81837798  0.39460515    -0.19700
C658        C  0.76306902  0.83715470  0.37914302     0.20500
C659        C  0.77681514  0.85066193  0.35982893    -0.32800
C660        C  0.76500570  0.86960065  0.34435274     0.01200
C661        C  0.73890262  0.87469137  0.34831061    -0.24100
C662        C  0.68378069  0.82190188  0.42728765    -0.28700
C663        C  0.69592113  0.80314213  0.44274951     0.06900
C664        C  0.72169110  0.79745866  0.43802040    -0.27300
H665        H  0.66529919  0.85794238  0.39450845     0.11600
H666        H  0.68927677  0.88086390  0.36005616     0.12700
H667        H  0.77091217  0.79075857  0.42576590     0.11800
H668        H  0.79497906  0.81397545  0.39171830     0.11100
H669        H  0.79677200  0.84622473  0.35686157     0.16400
H670        H  0.72948851  0.88927393  0.33668605     0.12400
H671        H  0.66385799  0.82624060  0.43070591     0.15200
H672        H  0.73120611  0.78311376  0.44991985     0.15000
C673        C  0.70388650  0.98904397  0.13458580    -0.17900
C674        C  0.69057687  0.00140979  0.11423603    -0.20100
C675        C  0.70255146  0.02026378  0.09883722     0.20600
C676        C  0.72821964  0.02670575  0.10393843    -0.03000
C677        C  0.74171924  0.01407545  0.12432572    -0.06000
C678        C  0.72943711  0.99524533  0.13977302     0.20900
C679        C  0.76747698  0.02029935  0.12924276     0.19000
C680        C  0.77942595  0.03920108  0.11388542    -0.17500
C681        C  0.76598365  0.05188782  0.09383154    -0.19700
C682        C  0.74039084  0.04577836  0.08871098     0.20500
C683        C  0.72676213  0.05842822  0.06865925    -0.32800
C684        C  0.70119412  0.05204306  0.06339281     0.01200
C685        C  0.68928382  0.03284001  0.07850030    -0.24100
C686        C  0.74291351  0.98289131  0.16009644    -0.28700
C687        C  0.76862873  0.98887016  0.16501851     0.06900
C688        C  0.78079462  0.00754473  0.14944118    -0.27300
H689        H  0.69420777  0.97460388  0.14624386     0.11600
H690        H  0.67086301  0.99626575  0.11058693     0.12700
H691        H  0.79919404  0.04423010  0.11742665     0.11800
H692        H  0.77560725  0.06645387  0.08230389     0.11100
H693        H  0.73612351  0.07311266  0.05703052     0.16400
H694        H  0.66954287  0.02788770  0.07467088     0.12400
H695        H  0.73345353  0.96831857  0.17176528     0.15200
H696        H  0.80054768  0.01243551  0.15326118     0.15000
C697        C  0.95432488  0.21210887  0.39069420    -0.17900
C698        C  0.94091750  0.22603562  0.40990100    -0.20100
C699        C  0.91696023  0.21765229  0.41877714     0.20600
C700        C  0.90656080  0.19484186  0.40844451    -0.03000
C701        C  0.92018967  0.18068085  0.38921417    -0.06000
C702        C  0.94407811  0.18951363  0.38013364     0.20900
C703        C  0.90983999  0.15780993  0.37895476     0.19000
C704        C  0.88594895  0.14934799  0.38794026    -0.17500
C705        C  0.87237484  0.16348112  0.40686125    -0.19700
C706        C  0.88249125  0.18623704  0.41720456     0.20500
C707        C  0.86894089  0.20055681  0.43609063    -0.32800
C708        C  0.87910295  0.22338959  0.44644826     0.01200
C709        C  0.90320574  0.23174369  0.43771880    -0.24100
C710        C  0.95719920  0.17569569  0.36053332    -0.28700
C711        C  0.94699184  0.15294054  0.35018525     0.06900
C712        C  0.92343730  0.14393680  0.35970742    -0.27300
H713        H  0.97271388  0.21908732  0.38401361     0.11600
H714        H  0.94920320  0.24344773  0.41768239     0.12700
H715        H  0.87771565  0.13188332  0.38024143     0.11800
H716        H  0.85390305  0.15659849  0.41339672     0.11100
H717        H  0.85042443  0.19386857  0.44271519     0.16400
H718        H  0.91127285  0.24922901  0.44560901     0.12400
H719        H  0.97550315  0.18256209  0.35346449     0.15200
H720        H  0.91540281  0.12651286  0.35165727     0.15000
C721        C  0.07278638  0.23216769  0.11371949    -0.17900
C722        C  0.06119849  0.21920782  0.13487696    -0.20100
C723        C  0.06879105  0.19435190  0.14147774     0.20600
C724        C  0.08842850  0.18252115  0.12678322    -0.03000
C725        C  0.10026961  0.19567978  0.10559710    -0.06000
C726        C  0.09226818  0.22054902  0.09889707     0.20900
C727        C  0.11998186  0.18386551  0.09102296     0.19000
C728        C  0.12773839  0.15910188  0.09775274    -0.17500
C729        C  0.11583535  0.14597205  0.11856010    -0.19700
C730        C  0.09608517  0.15745124  0.13308039     0.20500
C731        C  0.08370509  0.14420620  0.15360653    -0.32800
C732        C  0.06399576  0.15578919  0.16819891     0.01200
C733        C  0.05687877  0.18099671  0.16226536    -0.24100
C734        C  0.10385229  0.23331638  0.07748280    -0.28700
C735        C  0.12353624  0.22163849  0.06286750     0.06900
C736        C  0.13153832  0.19694526  0.06989497    -0.27300
H737        H  0.06646355  0.25127347  0.10890764     0.11600
H738        H  0.04614639  0.22856343  0.14595598     0.12700
H739        H  0.14289534  0.14980187  0.08678053     0.11800
H740        H  0.12200725  0.12678245  0.12322262     0.11100
H741        H  0.08950420  0.12490260  0.15830536     0.16400
H742        H  0.04157833  0.18998205  0.17331348     0.12400
H743        H  0.09768813  0.25240985  0.07235397     0.15200
H744        H  0.14667455  0.18775534  0.05877088     0.15000
C745        C  0.77561372  0.81407192  0.61322988    -0.17900
C746        C  0.76223788  0.80078971  0.59341364    -0.20100
C747        C  0.73755365  0.80836864  0.58609893     0.20600
C748        C  0.72632196  0.82957549  0.59883257    -0.03000
C749        C  0.73971518  0.84279786  0.61899806    -0.06000
C750        C  0.76450643  0.83502929  0.62619961     0.20900
C751        C  0.72820936  0.86367211  0.63206514     0.19000
C752        C  0.70368932  0.87147131  0.62454802    -0.17500
C753        C  0.69055135  0.85853006  0.60440618    -0.19700
C754        C  0.70161483  0.83751333  0.59155954     0.20500
C755        C  0.68832074  0.82422751  0.57169552    -0.32800
C756        C  0.69917412  0.80289287  0.55904933     0.01200
C757        C  0.72387566  0.79507327  0.56636271    -0.24100
C758        C  0.77758368  0.84822785  0.64639267    -0.28700
C759        C  0.76597763  0.86870977  0.65985177     0.06900
C760        C  0.74131204  0.87633418  0.65254117    -0.27300
H761        H  0.79464761  0.80781953  0.61853852     0.11600
H762        H  0.77116338  0.78460910  0.58384188     0.12700
H763        H  0.69466552  0.88749940  0.63429049     0.11800
H764        H  0.67157444  0.86488933  0.59899325     0.11100
H765        H  0.66928687  0.83041809  0.56627895     0.16400
H766        H  0.73246430  0.77874389  0.55669545     0.12400
H767        H  0.79657611  0.84215716  0.65207456     0.15200
H768        H  0.73242219  0.89228224  0.66259341     0.15000
C769        C  0.69107943  0.99218082  0.90436082    -0.17900
C770        C  0.70393110  0.97862555  0.88445445    -0.20100
C771        C  0.72769155  0.98707002  0.87511396     0.20600
C772        C  0.73857768  0.00948554  0.88586454    -0.03000
C773        C  0.72548438  0.02331451  0.90578623    -0.06000
C774        C  0.70170645  0.01451117  0.91516690     0.20900
C775        C  0.73625445  0.04583857  0.91640002     0.19000
C776        C  0.75995859  0.05435836  0.90693965    -0.17500
C777        C  0.77305472  0.04052217  0.88739421    -0.19700
C778        C  0.76259453  0.01800509  0.87682830     0.20500
C779        C  0.77574191  0.00382462  0.85745754    -0.32800
C780        C  0.76494193  0.98153520  0.84658220     0.01200
C781        C  0.74081562  0.97342172  0.85534491    -0.24100
C782        C  0.68899909  0.02809775  0.93526246    -0.28700
C783        C  0.69963630  0.05051654  0.94610284     0.06900
C784        C  0.72322656  0.05933816  0.93638699    -0.27300
H785        H  0.67282914  0.98518404  0.91132451     0.11600
H786        H  0.69532133  0.96142986  0.87644676     0.12700
H787        H  0.76848040  0.07164852  0.91480975     0.11800
H788        H  0.79140423  0.04740564  0.88058254     0.11100
H789        H  0.79421343  0.01032334  0.85056612     0.16400
H790        H  0.73248429  0.95615534  0.84716407     0.12400
H791        H  0.67078597  0.02117051  0.94244129     0.15200
H792        H  0.73158639  0.07660373  0.94452133     0.15000
C793        C  0.92805453  0.23218972  0.61133652    -0.17900
C794        C  0.94049675  0.21839497  0.63126708    -0.20100
C795        C  0.93320194  0.19320270  0.63689966     0.20600
C796        C  0.91308862  0.18184496  0.62248300    -0.03000
C797        C  0.90046259  0.19581498  0.60244698    -0.06000
C798        C  0.90809843  0.22106329  0.59676967     0.20900
C799        C  0.88031369  0.18448634  0.58803412     0.19000
C800        C  0.87295225  0.15932695  0.59377527    -0.17500
C801        C  0.88556315  0.14544822  0.61355648    -0.19700
C802        C  0.90568268  0.15649209  0.62796369     0.20500
C803        C  0.91859384  0.14263206  0.64765624    -0.32800
C804        C  0.93877161  0.15378227  0.66203058     0.01200
C805        C  0.94584522  0.17915558  0.65657485    -0.24100
C806        C  0.89570337  0.23470502  0.57658752    -0.28700
C807        C  0.87560786  0.22356257  0.56210724     0.06900
C808        C  0.86794073  0.19845915  0.56805914    -0.27300
H809        H  0.93410835  0.25159422  0.60726626     0.11600
H810        H  0.95588198  0.22737363  0.64218082     0.12700
H811        H  0.85752643  0.15036688  0.58290139     0.11800
H812        H  0.87959665  0.12599704  0.61754346     0.11100
H813        H  0.91276717  0.12319327  0.65185148     0.16400
H814        H  0.96147707  0.18793418  0.66724152     0.12400
H815        H  0.90164243  0.25409735  0.57225684     0.15200
H816        H  0.85251493  0.18968722  0.55698605     0.15000
C817        C  0.05871015  0.21770083  0.87103678    -0.17900
C818        C  0.07040412  0.23095012  0.89196981    -0.20100
C819        C  0.08746173  0.21844783  0.90906152     0.20600
C820        C  0.09246908  0.19224923  0.90527397    -0.03000
C821        C  0.08058908  0.17887748  0.88424903    -0.06000
C822        C  0.06381965  0.19172527  0.86690446     0.20900
C823        C  0.08577689  0.15274276  0.88038801     0.19000
C824        C  0.10249255  0.14011891  0.89771518    -0.17500
C825        C  0.11437454  0.15339621  0.91844783    -0.19700
C826        C  0.10968283  0.17947863  0.92221317     0.20500
C827        C  0.12229106  0.19309920  0.94229779    -0.32800
C828        C  0.11783208  0.21930029  0.94586773     0.01200
C829        C  0.10000386  0.23176768  0.92951824    -0.24100
C830        C  0.05258701  0.17841162  0.84566323    -0.28700
C831        C  0.05782998  0.15237820  0.84155744     0.06900
C832        C  0.07437746  0.13970004  0.85912986    -0.27300
H833        H  0.04579669  0.22783096  0.85795137     0.11600
H834        H  0.06632767  0.25103918  0.89461235     0.12700
H835        H  0.10657756  0.12002986  0.89506612     0.11800
H836        H  0.12745411  0.14330782  0.93138809     0.11100
H837        H  0.13579951  0.18331737  0.95503479     0.16400
H838        H  0.09649917  0.25197902  0.93216302     0.12400
H839        H  0.03962543  0.18836341  0.83251116     0.15200
H840        H  0.07876465  0.11973603  0.85612836     0.15000
C841        C  0.30769894  0.99000032  0.60900544    -0.17900
C842        C  0.29395965  0.97617405  0.62799902    -0.20100
C843        C  0.26737231  0.97839476  0.62957225     0.20600
C844        C  0.25442488  0.99459467  0.61171660    -0.03000
C845        C  0.26827783  0.00870188  0.59266700    -0.06000
C846        C  0.29502471  0.00636636  0.59133195     0.20900
C847        C  0.25538126  0.02529994  0.57513612     0.19000
C848        C  0.22875942  0.02722767  0.57646720    -0.17500
C849        C  0.21499582  0.01311004  0.59523412    -0.19700
C850        C  0.22769077  0.99689790  0.61306631     0.20500
C851        C  0.21410224  0.98326026  0.63245760    -0.32800
C852        C  0.22691133  0.96742362  0.65070201     0.01200
C853        C  0.25354312  0.96492855  0.64885198    -0.24100
C854        C  0.30868976  0.02056897  0.57248742    -0.28700
C855        C  0.29600745  0.03746383  0.55529553     0.06900
C856        C  0.26937315  0.03974501  0.55672598    -0.27300
H857        H  0.32819049  0.98803398  0.60823778     0.11600
H858        H  0.30420384  0.96377259  0.64159381     0.12700
H859        H  0.21854044  0.03979759  0.56303971     0.11800
H860        H  0.19449901  0.01503695  0.59596921     0.11100
H861        H  0.19367822  0.98550266  0.63360033     0.16400
H862        H  0.26370724  0.95254117  0.66248234     0.12400
H863        H  0.32922127  0.01884037  0.57152928     0.15200
H864        H  0.25950721  0.05260764  0.54330300     0.15000
C865        C  0.22313270  0.80366007  0.88188121    -0.17900
C866        C  0.23731254  0.79114544  0.90148053    -0.20100
C867        C  0.26058422  0.80133655  0.91031523     0.20600
C868        C  0.26970552  0.82434812  0.89932017    -0.03000
C869        C  0.25552616  0.83685086  0.87937022    -0.06000
C870        C  0.23207966  0.82649667  0.87069656     0.20900
C871        C  0.26487174  0.85963949  0.86803786     0.19000
C872        C  0.28800368  0.86996850  0.87706940    -0.17500
C873        C  0.30192637  0.85770583  0.89703893    -0.19700
C874        C  0.29303158  0.83482427  0.90817000     0.20500
C875        C  0.30709608  0.82219468  0.92790244    -0.32800
C876        C  0.29822436  0.79913345  0.93881780     0.01200
C877        C  0.27490293  0.78888365  0.92991155    -0.24100
C878        C  0.21808137  0.83909196  0.85089497    -0.28700
C879        C  0.22755886  0.86152795  0.83923940     0.06900
C880        C  0.25095828  0.87165987  0.84783033    -0.27300
H881        H  0.20522444  0.79543165  0.87539894     0.11600
H882        H  0.23005622  0.77347713  0.90974968     0.12700
H883        H  0.29535427  0.88752288  0.86865177     0.11800
H884        H  0.31975434  0.86604010  0.90365886     0.11100
H885        H  0.32499008  0.83029364  0.93467459     0.16400
H886        H  0.26780879  0.77117284  0.93824710     0.12400
H887        H  0.20011476  0.83117215  0.84413298     0.15200
H888        H  0.25815278  0.88912158  0.83902942     0.15000
C889        C  0.05558885  0.62656962  0.62416124    -0.17900
C890        C  0.06989301  0.61317849  0.60534840    -0.20100
C891        C  0.08703255  0.62614550  0.58870699     0.20600
C892        C  0.08982540  0.65281892  0.59097663    -0.03000
C893        C  0.07524862  0.66634521  0.60991586    -0.06000
C894        C  0.05814265  0.65308134  0.62662451     0.20900
C895        C  0.07785238  0.69303239  0.61222491     0.19000
C896        C  0.09496855  0.70598670  0.59545004    -0.17500
C897        C  0.10952780  0.69252565  0.57673067    -0.19700
C898        C  0.10718195  0.66594044  0.57437935     0.20500
C899        C  0.12170834  0.65219223  0.55571562    -0.32800
C900        C  0.11867213  0.62562741  0.55318501     0.01200
C901        C  0.10132836  0.61279484  0.56978388    -0.24100
C902        C  0.04403537  0.66648382  0.64566380    -0.28700
C903        C  0.04674151  0.69301301  0.64854149     0.06900
C904        C  0.06352870  0.70624497  0.63146961    -0.27300
H905        H  0.04249546  0.61610253  0.63689692     0.11600
H906        H  0.06759272  0.59273378  0.60382435     0.12700
H907        H  0.09718361  0.72644315  0.59691132     0.11800
H908        H  0.12268264  0.70296166  0.56407034     0.11100
H909        H  0.13498300  0.66219747  0.54281392     0.16400
H910        H  0.09904896  0.59233031  0.56807793     0.12400
H911        H  0.03088531  0.65603147  0.65830526     0.15200
H912        H  0.06590357  0.72663079  0.63344106     0.15000
C913        C  0.87931154  0.69076434  0.91349401    -0.17900
C914        C  0.89265717  0.70354885  0.89340573    -0.20100
C915        C  0.90826485  0.68999787  0.87564085     0.20600
C916        C  0.91058902  0.66332945  0.87821178    -0.03000
C917        C  0.89727843  0.65044099  0.89862955    -0.06000
C918        C  0.88143660  0.66422574  0.91623441     0.20900
C919        C  0.89980463  0.62379089  0.90139543     0.19000
C920        C  0.91541381  0.61025227  0.88361233    -0.17500
C921        C  0.92842543  0.62300971  0.86324010    -0.19700
C922        C  0.92617030  0.64953258  0.86037808     0.20500
C923        C  0.93924485  0.66249538  0.84006011    -0.32800
C924        C  0.93710236  0.68912812  0.83739459     0.01200
C925        C  0.92152246  0.70268025  0.85533747    -0.24100
C926        C  0.86801309  0.65124125  0.93625964    -0.28700
C927        C  0.87059668  0.62471698  0.93926705     0.06900
C928        C  0.88665126  0.61114492  0.92185301    -0.27300
H929        H  0.86731557  0.70164511  0.92689962     0.11600
H930        H  0.89070253  0.72405317  0.89171135     0.12700
H931        H  0.91751426  0.58978642  0.88542684     0.11800
H932        H  0.94031561  0.61210703  0.84972996     0.11100
H933        H  0.95131016  0.65180786  0.82655516     0.16400
H934        H  0.91938126  0.72312427  0.85342840     0.12400
H935        H  0.85583358  0.66182755  0.94976633     0.15200
H936        H  0.88862020  0.59067806  0.92399546     0.15000
C937        C  0.72685452  0.54375894  0.91401505    -0.17900
C938        C  0.71322130  0.53002644  0.89481913    -0.20100
C939        C  0.72490372  0.51007968  0.88073282     0.20600
C940        C  0.75043740  0.50363289  0.88630806    -0.03000
C941        C  0.76414817  0.51740299  0.90575898    -0.06000
C942        C  0.75234553  0.53771444  0.91947830     0.20900
C943        C  0.78972285  0.51103491  0.91124397     0.19000
C944        C  0.80130436  0.49086566  0.89741498    -0.17500
C945        C  0.78774001  0.47731085  0.87802155    -0.19700
C946        C  0.76238724  0.48365897  0.87220637     0.20500
C947        C  0.74889025  0.47062822  0.85229694    -0.32800
C948        C  0.72358603  0.47725410  0.84625846     0.01200
C949        C  0.71161869  0.49677765  0.86085582    -0.24100
C950        C  0.76628860  0.55174129  0.93826798    -0.28700
C951        C  0.79181682  0.54560598  0.94371536     0.06900
C952        C  0.80334720  0.52508225  0.93028633    -0.27300
H953        H  0.71749553  0.55923784  0.92447313     0.11600
H954        H  0.69361885  0.53516685  0.89080214     0.12700
H955        H  0.82089705  0.48572497  0.90143836     0.11800
H956        H  0.79716485  0.46195565  0.86740876     0.11100
H957        H  0.75818943  0.45534841  0.84147017     0.16400
H958        H  0.69220229  0.50216996  0.85630726     0.12400
H959        H  0.75720760  0.56740067  0.94872304     0.15200
H960        H  0.82302312  0.52024699  0.93437049     0.15000
C961        C  0.79491138  0.36871678  0.62977826    -0.17900
C962        C  0.80877778  0.35561889  0.61029107    -0.20100
C963        C  0.79701708  0.33672035  0.59469507     0.20600
C964        C  0.77098642  0.33105302  0.59867970    -0.03000
C965        C  0.75694200  0.34443576  0.61815632    -0.06000
C966        C  0.76901989  0.36324124  0.63388185     0.20900
C967        C  0.73085165  0.33893466  0.62193442     0.19000
C968        C  0.71908102  0.32005212  0.60634703    -0.17500
C969        C  0.73304951  0.30662565  0.58721527    -0.19700
C970        C  0.75898771  0.31196979  0.58326665     0.20500
C971        C  0.77311907  0.29852667  0.56419307    -0.32800
C972        C  0.79904898  0.30408890  0.56003470     0.01200
C973        C  0.81083366  0.32332863  0.57526660    -0.24100
C974        C  0.75500490  0.37621444  0.65343485    -0.28700
C975        C  0.72898466  0.37088844  0.65724275     0.06900
C976        C  0.71702250  0.35231518  0.64131068    -0.27300
H977        H  0.80444870  0.38314658  0.64164901     0.11600
H978        H  0.82874171  0.36019669  0.60749352     0.12700
H979        H  0.69906527  0.31559004  0.60902372     0.11800
H980        H  0.72356440  0.29206224  0.57549844     0.11100
H981        H  0.76383849  0.28385929  0.55241196     0.16400
H982        H  0.83083140  0.32767208  0.57223626     0.12400
H983        H  0.76430313  0.39069624  0.66544514     0.15200
H984        H  0.69703960  0.34790175  0.64430181     0.15000
C985        C  0.55858700  0.12592321  0.87462697    -0.17900
C986        C  0.57155219  0.11349083  0.89519070    -0.20100
C987        C  0.58963500  0.12662413  0.91061033     0.20600
C988        C  0.59480728  0.15253022  0.90520273    -0.03000
C989        C  0.58158298  0.16513190  0.88459649    -0.06000
C990        C  0.56340459  0.15175182  0.86924004     0.20900
C991        C  0.58650719  0.19112535  0.87943279     0.19000
C992        C  0.60479440  0.20418607  0.89465621    -0.17500
C993        C  0.61805238  0.19165429  0.91493696    -0.19700
C994        C  0.61315218  0.16586135  0.92039498     0.20500
C995        C  0.62629048  0.15318330  0.94076671    -0.32800
C996        C  0.62111782  0.12740720  0.94637929     0.01200
C997        C  0.60267699  0.11430460  0.93128091    -0.24100
C998        C  0.55024787  0.16445403  0.84887565    -0.28700
C999        C  0.55481800  0.19046057  0.84383020     0.06900
C1000       C  0.57303249  0.20361251  0.85918945    -0.27300
H1001       H  0.54471566  0.11537810  0.86301876     0.11600
H1002       H  0.56742347  0.09355699  0.89903295     0.12700
H1003       H  0.60884432  0.22415217  0.89088910     0.11800
H1004       H  0.63207283  0.20214481  0.92640264     0.11100
H1005       H  0.64040888  0.16343539  0.95236702     0.16400
H1006       H  0.59871734  0.09437213  0.93535864     0.12400
H1007       H  0.53615433  0.15417642  0.83730165     0.15200
H1008       H  0.57699145  0.22355263  0.85523535     0.15000
C1009       C  0.38336976  0.19152152  0.62011396    -0.17900
C1010       C  0.36909976  0.17739407  0.60170263    -0.20100
C1011       C  0.37820242  0.15398488  0.59202987     0.20600
C1012       C  0.40169900  0.14448002  0.60136460    -0.03000
C1013       C  0.41598226  0.15859843  0.62009483    -0.06000
C1014       C  0.40689771  0.18235974  0.62928736     0.20900
C1015       C  0.43942810  0.14898809  0.62948762     0.19000
C1016       C  0.44844544  0.12551297  0.61999658    -0.17500
C1017       C  0.43441950  0.11165192  0.60123435    -0.19700
C1018       C  0.41108855  0.12099816  0.59177312     0.20500
C1019       C  0.39722606  0.10743377  0.57256108    -0.32800
C1020       C  0.37408344  0.11701526  0.56267325     0.01200
C1021       C  0.36448804  0.14012987  0.57284212    -0.24100
C1022       C  0.42148703  0.19648264  0.64752885    -0.28700
C1023       C  0.44465019  0.18677261  0.65717401     0.06900
C1024       C  0.45345000  0.16302102  0.64819571    -0.27300
H1025       H  0.37605568  0.20962631  0.62710906     0.11600
H1026       H  0.35104437  0.18492874  0.59479902     0.12700
H1027       H  0.46643491  0.11791776  0.62699505     0.11800
H1028       H  0.44186623  0.09365962  0.59404583     0.11100
H1029       H  0.40473242  0.08960188  0.56497799     0.16400
H1030       H  0.34660301  0.14764060  0.56543113     0.12400
H1031       H  0.41457988  0.21470542  0.65468929     0.15200
H1032       H  0.47141528  0.15563407  0.65554332     0.15000
C1033       C  0.26807280  0.30000687  0.87755845    -0.17900
C1034       C  0.25474859  0.28729307  0.89772966    -0.20100
C1035       C  0.23302508  0.29833953  0.90925988     0.20600
C1036       C  0.22463145  0.32241293  0.90039403    -0.03000
C1037       C  0.23794698  0.33513783  0.87987501    -0.06000
C1038       C  0.25982334  0.32390250  0.86847065     0.20900
C1039       C  0.22931168  0.35904494  0.87072323     0.19000
C1040       C  0.20779666  0.37023527  0.88249428    -0.17500
C1041       C  0.19474416  0.35772250  0.90298357    -0.19700
C1042       C  0.20288680  0.33374999  0.91194897     0.20500
C1043       C  0.18963393  0.32090176  0.93219434    -0.32800
C1044       C  0.19778143  0.29681793  0.94106030     0.01200
C1045       C  0.21955438  0.28570628  0.92947170    -0.24100
C1046       C  0.27297176  0.33673101  0.84813281    -0.28700
C1047       C  0.26418384  0.36033582  0.83863549     0.06900
C1048       C  0.24231237  0.37133683  0.84995234    -0.27300
H1049       H  0.28480371  0.29108817  0.86898584     0.11600
H1050       H  0.26144259  0.26882805  0.90432599     0.12700
H1051       H  0.20102970  0.38864488  0.87581087     0.11800
H1052       H  0.17814657  0.36674731  0.91171559     0.11100
H1053       H  0.17295804  0.32969256  0.94104292     0.16400
H1054       H  0.22606352  0.26719125  0.93615355     0.12400
H1055       H  0.28977890  0.32814235  0.83933412     0.15200
H1056       H  0.23567730  0.38968055  0.84289225     0.15000
C1057       C  0.27516714  0.52788057  0.60377968    -0.17900
C1058       C  0.26180590  0.54079805  0.58381034    -0.20100
C1059       C  0.23562556  0.53655268  0.58016605     0.20600
C1060       C  0.22277145  0.51901977  0.59673969    -0.03000
C1061       C  0.23621685  0.50611004  0.61702899    -0.06000
C1062       C  0.26253026  0.51053950  0.62052655     0.20900
C1063       C  0.22331233  0.48880038  0.63379964     0.19000
C1064       C  0.19716027  0.48441994  0.63003022    -0.17500
C1065       C  0.18387606  0.49706218  0.60981509    -0.19700
C1066       C  0.19648780  0.51441193  0.59308609     0.20500
C1067       C  0.18325499  0.52729280  0.57286107    -0.32800
C1068       C  0.19586437  0.54505579  0.55649404     0.01200
C1069       C  0.22206600  0.54955396  0.56030317    -0.24100
C1070       C  0.27578162  0.49758003  0.64068997    -0.28700
C1071       C  0.26306881  0.48027094  0.65756564     0.06900
C1072       C  0.23677257  0.47610284  0.65397204    -0.27300
H1073       H  0.29534313  0.53149056  0.60616740     0.11600
H1074       H  0.27199334  0.55415936  0.57119275     0.12700
H1075       H  0.18695673  0.47115891  0.64271775     0.11800
H1076       H  0.16371383  0.49332065  0.60731561     0.11100
H1077       H  0.16307240  0.52375874  0.57011397     0.16400
H1078       H  0.23200176  0.56305394  0.54762200     0.12400
H1079       H  0.29591493  0.50120175  0.64332548     0.15200
H1080       H  0.22674050  0.46267524  0.66658736     0.15000
C1081       C  0.42417503  0.73266854  0.88548326    -0.17900
C1082       C  0.43665131  0.71897549  0.86540362    -0.20100
C1083       C  0.43314727  0.69251604  0.86300280     0.20600
C1084       C  0.41706322  0.67970740  0.88112434    -0.03000
C1085       C  0.40433567  0.69353782  0.90126747    -0.06000
C1086       C  0.40790426  0.72014907  0.90343580     0.20900
C1087       C  0.38786830  0.68075687  0.91906130     0.19000
C1088       C  0.38467921  0.65425604  0.91692850    -0.17500
C1089       C  0.39742800  0.64054787  0.89709133    -0.19700
C1090       C  0.41349159  0.65310810  0.87898864     0.20500
C1091       C  0.42580488  0.63955398  0.85864048    -0.32800
C1092       C  0.44162672  0.65216151  0.84020652     0.01200
C1093       C  0.44529852  0.67869186  0.84269694    -0.24100
C1094       C  0.39495733  0.73377772  0.92335118    -0.28700
C1095       C  0.37811300  0.72121381  0.94079418     0.06900
C1096       C  0.37472307  0.69469793  0.93854884    -0.27300
H1097       H  0.42711973  0.75308959  0.88685915     0.11600
H1098       H  0.44897218  0.72910737  0.85167818     0.12700
H1099       H  0.37221474  0.64415195  0.93051681     0.11800
H1100       H  0.39454246  0.62009700  0.89576913     0.11100
H1101       H  0.42262427  0.61919049  0.85700835     0.16400
H1102       H  0.45762316  0.68870513  0.82892136     0.12400
H1103       H  0.39758453  0.75424118  0.92492824     0.15200
H1104       H  0.36195650  0.68488149  0.95209275     0.15000
C1105       C  0.59853513  0.64218345  0.60000160    -0.17900
C1106       C  0.61266154  0.65653575  0.58173245    -0.20100
C1107       C  0.60905079  0.68298697  0.57979112     0.20600
C1108       C  0.59094445  0.69508505  0.59627258    -0.03000
C1109       C  0.57679166  0.68061531  0.61477552    -0.06000
C1110       C  0.58064682  0.65404723  0.61667998     0.20900
C1111       C  0.55889614  0.69276127  0.63144097     0.19000
C1112       C  0.55512436  0.71917776  0.62935752    -0.17500
C1113       C  0.56904759  0.73349286  0.61091176    -0.19700
C1114       C  0.58698495  0.72164755  0.59430426     0.20500
C1115       C  0.60096317  0.73586614  0.57571113    -0.32800
C1116       C  0.61908048  0.72394836  0.55929361     0.01200
C1117       C  0.62314279  0.69752401  0.56156822    -0.24100
C1118       C  0.56679726  0.63988570  0.63545340    -0.28700
C1119       C  0.54924787  0.65193501  0.65251305     0.06900
C1120       C  0.54522260  0.67836856  0.65009924    -0.27300
H1121       H  0.60171475  0.62178371  0.60118758     0.11600
H1122       H  0.62641841  0.64696433  0.56914453     0.12700
H1123       H  0.54145757  0.72876620  0.64202885     0.11800
H1124       H  0.56580113  0.75387746  0.60966764     0.11100
H1125       H  0.59781951  0.75625092  0.57409589     0.16400
H1126       H  0.63692987  0.68818069  0.54879937     0.12400
H1127       H  0.57019049  0.61957154  0.63710999     0.15200
H1128       H  0.53151259  0.68788760  0.66273488     0.15000
C1129       C  0.28133752  0.32039791  0.10093149    -0.17900
C1130       C  0.26793294  0.30737179  0.08097445    -0.20100
C1131       C  0.24132126  0.30938955  0.07923342     0.20600
C1132       C  0.22808724  0.32475259  0.09774298    -0.03000
C1133       C  0.24157074  0.33764453  0.11804733    -0.06000
C1134       C  0.26833064  0.33552276  0.11960000     0.20900
C1135       C  0.22824491  0.35260375  0.13681311     0.19000
C1136       C  0.20165717  0.35474849  0.13501149    -0.17500
C1137       C  0.18832919  0.34220569  0.11473531    -0.19700
C1138       C  0.20135835  0.32717755  0.09604498     0.20500
C1139       C  0.18808751  0.31441583  0.07579886    -0.32800
C1140       C  0.20107041  0.29878379  0.05755202     0.01200
C1141       C  0.22768145  0.29627633  0.05940458    -0.24100
C1142       C  0.28158084  0.34846475  0.13985109    -0.28700
C1143       C  0.26837752  0.36325525  0.15876720     0.06900
C1144       C  0.24170094  0.36518001  0.15706246    -0.27300
H1145       H  0.30187061  0.31855056  0.10183850     0.11600
H1146       H  0.27839683  0.29571494  0.06688431     0.12700
H1147       H  0.19116068  0.36617497  0.14927685     0.11800
H1148       H  0.16780307  0.34418423  0.11373161     0.11100
H1149       H  0.16753835  0.31621685  0.07458493     0.16400
H1150       H  0.23776847  0.28432117  0.04526832     0.12400
H1151       H  0.30209612  0.34665685  0.14110515     0.15200
H1152       H  0.23133678  0.37675667  0.17128900     0.15000
C1153       C  0.18781913  0.48085856  0.40111166    -0.17900
C1154       C  0.20167573  0.46618538  0.38281735    -0.20100
C1155       C  0.22652376  0.47329252  0.37552073     0.20600
C1156       C  0.23754982  0.49534584  0.38691103    -0.03000
C1157       C  0.22353940  0.51023765  0.40517710    -0.06000
C1158       C  0.19857018  0.50296414  0.41234303     0.20900
C1159       C  0.23455196  0.53245758  0.41620169     0.19000
C1160       C  0.25940682  0.53950800  0.40908350    -0.17500
C1161       C  0.27332602  0.52470593  0.39112932    -0.19700
C1162       C  0.26254431  0.50265970  0.37992776     0.20500
C1163       C  0.27630834  0.48803443  0.36160503    -0.32800
C1164       C  0.26540815  0.46627910  0.34977355     0.01200
C1165       C  0.24050190  0.45894697  0.35690659    -0.24100
C1166       C  0.18484893  0.51791530  0.43062459    -0.28700
C1167       C  0.19579655  0.54011940  0.44167037     0.06900
C1168       C  0.22059774  0.54724426  0.43421676    -0.27300
H1169       H  0.16870056  0.47498432  0.40639956     0.11600
H1170       H  0.19290577  0.44927224  0.37431446     0.12700
H1171       H  0.26812192  0.55652028  0.41742673     0.11800
H1172       H  0.29247611  0.53055551  0.38591042     0.11100
H1173       H  0.29528971  0.49410766  0.35604077     0.16400
H1174       H  0.23200767  0.44208190  0.34801419     0.12400
H1175       H  0.16572174  0.51228063  0.43620941     0.15200
H1176       H  0.22924404  0.56425288  0.44266312     0.15000
C1177       C  0.44141101  0.72148804  0.12671083    -0.17900
C1178       C  0.42849119  0.73476204  0.10670462    -0.20100
C1179       C  0.40928848  0.72271531  0.09181212     0.20600
C1180       C  0.40292417  0.69706495  0.09724989    -0.03000
C1181       C  0.41610228  0.68360784  0.11729579    -0.06000
C1182       C  0.43542996  0.69590327  0.13207512     0.20900
C1183       C  0.41002318  0.65784396  0.12244299     0.19000
C1184       C  0.39059969  0.64588032  0.10777970    -0.17500
C1185       C  0.37739921  0.65927278  0.08805641    -0.19700
C1186       C  0.38348652  0.68481851  0.08259046     0.20500
C1187       C  0.37054614  0.69828647  0.06265136    -0.32800
C1188       C  0.37696481  0.72377881  0.05689480     0.01200
C1189       C  0.39638916  0.73584492  0.07156025    -0.24100
C1190       C  0.44855252  0.68237846  0.15184431    -0.28700
C1191       C  0.44282815  0.65661122  0.15690378     0.06900
C1192       C  0.42350245  0.64449022  0.14210567    -0.27300
H1193       H  0.45619015  0.73120546  0.13790578     0.11600
H1194       H  0.43355384  0.75446291  0.10285024     0.12700
H1195       H  0.38564031  0.62613492  0.11153324     0.11800
H1196       H  0.36250722  0.64960812  0.07698215     0.11100
H1197       H  0.35565625  0.68879179  0.05139315     0.16400
H1198       H  0.40132848  0.75552676  0.06737501     0.12400
H1199       H  0.46354028  0.69185078  0.16295624     0.15200
H1200       H  0.41870963  0.62474732  0.14606331     0.15000
C1201       C  0.55597862  0.72472690  0.37090994    -0.17900
C1202       C  0.56921832  0.73820402  0.39066005    -0.20100
C1203       C  0.58504108  0.72528064  0.40869348     0.20600
C1204       C  0.58729804  0.69850535  0.40698572    -0.03000
C1205       C  0.57375159  0.68491082  0.38721480    -0.06000
C1206       C  0.55820540  0.69811381  0.36893288     0.20900
C1207       C  0.57603064  0.65815503  0.38555084     0.19000
C1208       C  0.59160077  0.64518905  0.40376889    -0.17500
C1209       C  0.60518299  0.65866988  0.42320043    -0.19700
C1210       C  0.60332853  0.68530780  0.42482808     0.20500
C1211       C  0.61740838  0.69898552  0.44381052    -0.32800
C1212       C  0.61537139  0.72564613  0.44555717     0.01200
C1213       C  0.59887209  0.73867013  0.42819329    -0.24100
C1214       C  0.54541052  0.68449738  0.34885795    -0.28700
C1215       C  0.54787933  0.65781795  0.34677855     0.06900
C1216       C  0.56303546  0.64481134  0.36547414    -0.27300
H1217       H  0.54406297  0.73518170  0.35704852     0.11600
H1218       H  0.56727359  0.75872443  0.39168266     0.12700
H1219       H  0.59348898  0.62464959  0.40280408     0.11800
H1220       H  0.61730050  0.64824541  0.43686814     0.11100
H1221       H  0.62987020  0.68884292  0.45739270     0.16400
H1222       H  0.59727417  0.75923067  0.42945682     0.12400
H1223       H  0.53355044  0.69479458  0.33484656     0.15200
H1224       H  0.56529356  0.62435044  0.36413742     0.15000
C1225       C  0.73011786  0.54666995  0.09109351    -0.17900
C1226       C  0.71725931  0.53325627  0.11109844    -0.20100
C1227       C  0.72993611  0.51456129  0.12605129     0.20600
C1228       C  0.75584169  0.50941625  0.12088589    -0.03000
C1229       C  0.76876137  0.52282199  0.10054086    -0.06000
C1230       C  0.75581981  0.54155576  0.08559852     0.20900
C1231       C  0.79455915  0.51739051  0.09508470     0.19000
C1232       C  0.80730275  0.49887748  0.11021663    -0.17500
C1233       C  0.79455239  0.48574980  0.13051220    -0.19700
C1234       C  0.76881702  0.49080528  0.13595217     0.20500
C1235       C  0.75579410  0.47748675  0.15605731    -0.32800
C1236       C  0.72986210  0.48227879  0.16113554     0.01200
C1237       C  0.71710650  0.50090759  0.14602056    -0.24100
C1238       C  0.76875677  0.55472196  0.06534706    -0.28700
C1239       C  0.79438056  0.54917998  0.05953441     0.06900
C1240       C  0.80714563  0.53047951  0.07454338    -0.27300
H1241       H  0.71988277  0.56099652  0.07980428     0.11600
H1242       H  0.69740148  0.53747350  0.11485070     0.12700
H1243       H  0.82711678  0.49452578  0.10632964     0.11800
H1244       H  0.80481783  0.47151864  0.14189026     0.11100
H1245       H  0.76578556  0.46306095  0.16742274     0.16400
H1246       H  0.69726338  0.50503089  0.14994439     0.12400
H1247       H  0.75873671  0.56905132  0.05384171     0.15200
H1248       H  0.82693326  0.52619901  0.07035509     0.15000
C1249       C  0.80960312  0.35985349  0.39898385    -0.17900
C1250       C  0.79571383  0.37332952  0.37979675    -0.20100
C1251       C  0.77013002  0.36714180  0.37465554     0.20600
C1252       C  0.75833053  0.34741383  0.38925915    -0.03000
C1253       C  0.77239982  0.33367583  0.40844772    -0.06000
C1254       C  0.79819112  0.33986531  0.41328362     0.20900
C1255       C  0.76070034  0.31358694  0.42258283     0.19000
C1256       C  0.73499377  0.30772107  0.41785935    -0.17500
C1257       C  0.72102660  0.32143677  0.39900500    -0.19700
C1258       C  0.73255538  0.34117136  0.38446710     0.20500
C1259       C  0.71886179  0.35445804  0.36492812    -0.32800
C1260       C  0.73062935  0.37370902  0.34976107     0.01200
C1261       C  0.75624165  0.38009276  0.35495425    -0.24100
C1262       C  0.81211984  0.32584011  0.43216955    -0.28700
C1263       C  0.80065061  0.30548235  0.44599860     0.06900
C1264       C  0.77489974  0.29959024  0.44109987    -0.27300
H1265       H  0.82935037  0.36492022  0.40246617     0.11600
H1266       H  0.80504672  0.38849754  0.36884310     0.12700
H1267       H  0.72571719  0.29241691  0.42865189     0.11800
H1268       H  0.70124204  0.31642887  0.39559986     0.11100
H1269       H  0.69922051  0.34923708  0.36104015     0.16400
H1270       H  0.76541769  0.39512898  0.34367472     0.12400
H1271       H  0.83192526  0.33057000  0.43585792     0.15200
H1272       H  0.76577557  0.28415493  0.45185749     0.15000
C1273       C  0.61463158  0.19475393  0.09038009    -0.17900
C1274       C  0.60015884  0.20792840  0.10933975    -0.20100
C1275       C  0.58163531  0.19510158  0.12445658     0.20600
C1276       C  0.57744535  0.16881917  0.12021996    -0.03000
C1277       C  0.59189819  0.15558173  0.10093730    -0.06000
C1278       C  0.61072580  0.16857460  0.08609163     0.20900
C1279       C  0.58759554  0.12932856  0.09664196     0.19000
C1280       C  0.56894878  0.11653839  0.11161145    -0.17500
C1281       C  0.55481268  0.12960368  0.13088549    -0.19700
C1282       C  0.55899574  0.15568151  0.13543149     0.20500
C1283       C  0.54530267  0.16876122  0.15514770    -0.32800
C1284       C  0.54962629  0.19485745  0.15977368     0.01200
C1285       C  0.56754638  0.20799771  0.14403598    -0.24100
C1286       C  0.62525243  0.15516246  0.06721413    -0.28700
C1287       C  0.62091005  0.12901936  0.06267793     0.06900
C1288       C  0.60200129  0.11628262  0.07747209    -0.27300
H1289       H  0.62893564  0.20505462  0.07908647     0.11600
H1290       H  0.60360465  0.22810139  0.11234031     0.12700
H1291       H  0.56540657  0.09639934  0.10851755     0.11800
H1292       H  0.54065715  0.11925043  0.14234856     0.11100
H1293       H  0.53127486  0.15856929  0.16693387     0.16400
H1294       H  0.57115169  0.22806422  0.14755432     0.12400
H1295       H  0.63966813  0.16516371  0.05576663     0.15200
H1296       H  0.59858805  0.09612982  0.07419769     0.15000
C1297       C  0.44945074  0.12659072  0.38348660    -0.17900
C1298       C  0.43541824  0.11264423  0.40221260    -0.20100
C1299       C  0.41483280  0.12389604  0.41565239     0.20600
C1300       C  0.40841364  0.14949542  0.41029304    -0.03000
C1301       C  0.42271039  0.16363276  0.39157237    -0.06000
C1302       C  0.44322001  0.15207386  0.37798002     0.20900
C1303       C  0.41635977  0.18927700  0.38635119     0.19000
C1304       C  0.39577670  0.20052263  0.39977268    -0.17500
C1305       C  0.38150324  0.18646852  0.41816152    -0.19700
C1306       C  0.38763979  0.16096028  0.42353678     0.20500
C1307       C  0.37332422  0.14673378  0.44187462    -0.32800
C1308       C  0.37961365  0.12122307  0.44739174     0.01200
C1309       C  0.40049679  0.10998468  0.43425915    -0.24100
C1310       C  0.45700097  0.16614798  0.35900927    -0.28700
C1311       C  0.45071736  0.19172470  0.35363772     0.06900
C1312       C  0.43050265  0.20317584  0.36760720    -0.27300
H1313       H  0.46515759  0.11742732  0.37327140     0.11600
H1314       H  0.44059866  0.09299993  0.40609002     0.12700
H1315       H  0.39063008  0.22018266  0.39594948     0.11800
H1316       H  0.36563450  0.19556095  0.42817649     0.11100
H1317       H  0.35736291  0.15560344  0.45197105     0.16400
H1318       H  0.40546481  0.09030703  0.43829980     0.12400
H1319       H  0.47267665  0.15721023  0.34852029     0.15200
H1320       H  0.42528624  0.22274367  0.36342827     0.15000
loop_ 
_geom_bond_atom_site_label_1 
_geom_bond_atom_site_label_2 
_geom_bond_distance 
_geom_bond_site_symmetry_2 
_ccdc_geom_bond_type 
N1            N2   1.321       .  A
N1            C5   1.345       .  A
N1           Cu9   2.074       .  S
N2            C3   1.343       .  A
N2           Cu8   2.065       .  S
C3            C4   1.385       .  A
C3            H6   1.082       .  S
C4            C5   1.387       .  A
C4         C1284   1.480       .  S
C5            H7   1.082       .  S
Cu8          N11   2.064       .  S
Cu9          N19   2.074       .  S
Cu10         N12   2.086       .  S
Cu10         N18   2.086       .  S
N11          N12   1.322       .  A
N11          C15   1.344       .  A
N12          C13   1.348       .  A
C13          C14   1.386       .  A
C13          H16   1.082       .  S
C14          C15   1.380       .  A
C14          C38   1.470       .  S
C15          H17   1.082       .  S
N18          N19   1.323       .  A
N18          C22   1.346       .  A
N19          C20   1.345       .  A
C20          C21   1.385       .  A
C20          H23   1.081       .  S
C21          C22   1.388       .  A
C21        C1311   1.484       .  S
C22          H24   1.082       .  S
O25         Cu33   2.011       .  S
O25          C35   1.277       .  A
O26         Cu33   2.008       .  S
O26          C36   1.277       .  A
O27         Cu33   2.014       .  S
O27          C37   1.278       .  A
O28         Cu33   2.016       .  S
O28          C38   1.279       .  A
O29         Cu34   2.008       .  S
O29          C38   1.276       .  A
O30         Cu34   2.007       .  S
O30          C37   1.277       .  A
O31         Cu34   2.016       .  S
O31          C36   1.279       .  A
O32         Cu34   2.018       .  S
O32          C35   1.279       .  A
Cu33        Cu34   2.372       .  S
C35          C52   1.471       .  S
C36         C100   1.469       .  S
C37          C76   1.468       .  S
N39          N40   1.322       .  A
N39          C43   1.346       .  A
N39         Cu47   2.077       .  S
N40          C41   1.345       .  A
N40         Cu46   2.078       .  S
C41          C42   1.387       .  A
C41          H44   1.082       .  S
C42          C43   1.388       .  A
C42        C1236   1.485       .  S
C43          H45   1.081       .  S
Cu46         N49   2.079       .  S
Cu47         N57   2.077       .  S
Cu48         N50   2.080       .  S
Cu48         N56   2.080       .  S
N49          N50   1.323       .  A
N49          C53   1.346       .  A
N50          C51   1.347       .  A
C51          C52   1.383       .  A
C51          H54   1.082       .  S
C52          C53   1.383       .  A
C53          H55   1.082       .  S
N56          N57   1.322       .  A
N56          C60   1.346       .  A
N57          C58   1.345       .  A
C58          C59   1.387       .  A
C58          H61   1.082       .  S
C59          C60   1.388       .  A
C59        C1260   1.485       .  S
C60          H62   1.082       .  S
N63          N64   1.321       .  A
N63          C67   1.344       .  A
N63         Cu71   2.070       .  S
N64          C65   1.345       .  A
N64         Cu70   2.074       .  S
C65          C66   1.387       .  A
C65          H68   1.081       .  S
C66          C67   1.385       .  A
C66        C1191   1.482       .  S
C67          H69   1.081       .  S
Cu70         N73   2.074       .  S
Cu71         N81   2.070       .  S
Cu72         N74   2.076       .  S
Cu72         N80   2.075       .  S
N73          N74   1.323       .  A
N73          C77   1.346       .  A
N74          C75   1.345       .  A
C75          C76   1.382       .  A
C75          H78   1.082       .  S
C76          C77   1.383       .  A
C77          H79   1.082       .  S
N80          N81   1.321       .  A
N80          C84   1.344       .  A
N81          C82   1.344       .  A
C82          C83   1.388       .  A
C82          H85   1.081       .  S
C83          C84   1.389       .  A
C83        C1215   1.486       .  S
C84          H86   1.082       .  S
N87          N88   1.322       .  A
N87          C91   1.343       .  A
N87         Cu95   2.071       .  S
N88          C89   1.346       .  A
N88         Cu94   2.078       .  S
C89          C90   1.387       .  A
C89          H92   1.082       .  S
C90          C91   1.385       .  A
C90        C1143   1.482       .  S
C91          H93   1.081       .  S
Cu94         N97   2.078       .  S
Cu95        N105   2.070       .  S
Cu96         N98   2.071       .  S
Cu96        N104   2.071       .  S
N97          N98   1.322       .  A
N97         C101   1.346       .  A
N98          C99   1.345       .  A
C99         C100   1.382       .  A
C99         H102   1.082       .  S
C100        C101   1.384       .  A
C101        H103   1.082       .  S
N104        N105   1.321       .  A
N104        C108   1.342       .  A
N105        C106   1.346       .  A
C106        C107   1.386       .  A
C106        H109   1.082       .  S
C107        C108   1.386       .  A
C107       C1164   1.481       .  S
C108        H110   1.082       .  S
N111        N112   1.320       .  A
N111        C115   1.341       .  A
N111       Cu119   2.066       .  S
N112        C113   1.345       .  A
N112       Cu118   2.069       .  S
C113        C114   1.388       .  A
C113        H116   1.081       .  S
C114        C115   1.386       .  A
C114       C1119   1.483       .  S
C115        H117   1.081       .  S
Cu118       N121   2.069       .  S
Cu119       N129   2.066       .  S
Cu120       N122   2.072       .  S
Cu120       N128   2.072       .  S
N121        N122   1.323       .  A
N121        C125   1.344       .  A
N122        C123   1.344       .  A
C123        C124   1.381       .  A
C123        H126   1.082       .  S
C124        C125   1.381       .  A
C124        C148   1.463       .  S
C125        H127   1.082       .  S
N128        N129   1.320       .  A
N128        C132   1.344       .  A
N129        C130   1.343       .  A
C130        C131   1.388       .  A
C130        H133   1.081       .  S
C131        C132   1.389       .  A
C131       C1092   1.486       .  S
C132        H134   1.081       .  S
O135       Cu143   2.010       .  S
O135        C145   1.278       .  A
O136       Cu143   2.012       .  S
O136        C146   1.278       .  A
O137       Cu143   2.005       .  S
O137        C147   1.276       .  A
O138       Cu143   2.003       .  S
O138        C148   1.277       .  A
O139       Cu144   2.005       .  S
O139        C148   1.277       .  A
O140       Cu144   2.010       .  S
O140        C147   1.278       .  A
O141       Cu144   2.009       .  S
O141        C146   1.277       .  A
O142       Cu144   2.004       .  S
O142        C145   1.277       .  A
Cu143      Cu144   2.373       .  S
C145        C210   1.465       .  S
C146        C162   1.468       .  S
C147        C186   1.466       .  S
N149        N150   1.322       .  A
N149        C153   1.346       .  A
N149       Cu157   2.079       .  S
N150        C151   1.346       .  A
N150       Cu156   2.079       .  S
C151        C152   1.388       .  A
C151        H154   1.081       .  S
C152        C153   1.389       .  A
C152       C1071   1.488       .  S
C153        H155   1.081       .  S
Cu156       N159   2.079       .  S
Cu157       N167   2.079       .  S
Cu158       N160   2.071       .  S
Cu158       N166   2.071       .  S
N159        N160   1.323       .  A
N159        C163   1.346       .  A
N160        C161   1.345       .  A
C161        C162   1.382       .  A
C161        H164   1.082       .  S
C162        C163   1.383       .  A
C163        H165   1.082       .  S
N166        N167   1.322       .  A
N166        C170   1.345       .  A
N167        C168   1.345       .  A
C168        C169   1.385       .  A
C168        H171   1.082       .  S
C169        C170   1.383       .  A
C169       C1047   1.477       .  S
C170        H172   1.082       .  S
N173        N174   1.321       .  A
N173        C177   1.344       .  A
N173       Cu181   2.070       .  S
N174        C175   1.344       .  A
N174       Cu180   2.075       .  S
C175        C176   1.387       .  A
C175        H178   1.081       .  S
C176        C177   1.386       .  A
C176        C999   1.482       .  S
C177        H179   1.082       .  S
Cu180       N183   2.075       .  S
Cu181       N191   2.070       .  S
Cu182       N184   2.064       .  S
Cu182       N190   2.064       .  S
N183        N184   1.322       .  A
N183        C187   1.345       .  A
N184        C185   1.344       .  A
C185        C186   1.380       .  A
C185        H188   1.082       .  S
C186        C187   1.383       .  A
C187        H189   1.082       .  S
N190        N191   1.322       .  A
N190        C194   1.344       .  A
N191        C192   1.343       .  A
C192        C193   1.383       .  A
C192        H195   1.081       .  S
C193        C194   1.382       .  A
C193       C1023   1.472       .  S
C194        H196   1.082       .  S
N197        N198   1.321       .  A
N197        C201   1.344       .  A
N197       Cu205   2.067       .  S
N198        C199   1.344       .  A
N198       Cu204   2.071       .  S
C199        C200   1.385       .  A
C199        H202   1.082       .  S
C200        C201   1.385       .  A
C200        C975   1.478       .  S
C201        H203   1.082       .  S
Cu204       N207   2.071       .  S
Cu205       N215   2.067       .  S
Cu206       N208   2.068       .  S
Cu206       N214   2.068       .  S
N207        N208   1.322       .  A
N207        C211   1.345       .  A
N208        C209   1.344       .  A
C209        C210   1.381       .  A
C209        H212   1.082       .  S
C210        C211   1.382       .  A
C211        H213   1.082       .  S
N214        N215   1.321       .  A
N214        C218   1.344       .  A
N215        C216   1.343       .  A
C216        C217   1.386       .  A
C216        H219   1.081       .  S
C217        C218   1.386       .  A
C217        C948   1.480       .  S
C218        H220   1.082       .  S
N221        N222   1.321       .  A
N221        C225   1.343       .  A
N221       Cu229   2.078   1_455  S
N222        C223   1.345       .  A
N222       Cu228   2.068       .  S
C223        C224   1.386       .  A
C223        H226   1.081       .  S
C224        C225   1.389       .  A
C224        C903   1.485       .  S
C225        H227   1.081       .  S
Cu228       N231   2.068   1_455  S
Cu229       N239   2.078       .  S
Cu230       N232   2.064       .  S
Cu230       N238   2.064       .  S
N231        N232   1.322       .  A
N231        C235   1.343   1_655  A
N232        C233   1.344       .  A
C233        C234   1.380       .  A
C233        H236   1.082       .  S
C234        C235   1.382   1_655  A
C234        C257   1.463       .  S
C235        H237   1.082       .  S
N238        N239   1.320       .  A
N238        C242   1.342       .  A
N239        C240   1.346       .  A
C240        C241   1.390       .  A
C240        H243   1.081       .  S
C241        C242   1.386       .  A
C241        C924   1.486       .  S
C242        H244   1.081       .  S
O245       Cu253   2.003   1_455  S
O245        C255   1.277       .  A
O246       Cu253   2.006       .  S
O246        C256   1.277       .  A
O247       Cu253   2.012       .  S
O247        C257   1.278       .  A
O248       Cu253   2.012       .  S
O248        C258   1.278       .  A
O249       Cu254   1.995       .  S
O249        C258   1.275       .  A
O250       Cu254   1.996       .  S
O250        C257   1.275       .  A
O251       Cu254   2.005       .  S
O251        C256   1.277       .  A
O252       Cu254   2.008   1_455  S
O252        C255   1.277       .  A
Cu253      Cu254   2.374       .  S
C255        C272   1.464       .  S
C256        C320   1.464       .  S
C258        C296   1.462       .  S
N259        N260   1.321       .  A
N259        C263   1.343       .  A
N259       Cu267   2.065       .  S
N260        C261   1.345       .  A
N260       Cu266   2.070       .  S
C261        C262   1.384       .  A
C261        H264   1.082       .  S
C262        C263   1.383       .  A
C262        C879   1.474       .  S
C263        H265   1.082       .  S
Cu266       N269   2.070       .  S
Cu267       N277   2.066       .  S
Cu268       N270   2.069       .  S
Cu268       N276   2.069       .  S
N269        N270   1.323       .  A
N269        C273   1.344       .  A
N270        C271   1.345       .  A
C271        C272   1.382       .  A
C271        H274   1.082       .  S
C272        C273   1.381       .  A
C273        H275   1.082       .  S
N276        N277   1.320       .  A
N276        C280   1.344       .  A
N277        C278   1.342       .  A
C278        C279   1.387       .  A
C278        H281   1.081       .  S
C279        C280   1.388       .  A
C279        C852   1.484       .  S
C280        H282   1.081       .  S
N283        N284   1.321       .  A
N283        C287   1.342       .  A
N283       Cu291   2.064   1_655  S
N284        C285   1.345       .  A
N284       Cu290   2.073       .  S
C285        C286   1.388       .  A
C285        H288   1.081       .  S
C286        C287   1.385       .  A
C286        C804   1.482       .  S
C287        H289   1.081       .  S
Cu290       N293   2.073       .  S
Cu291       N301   2.063       .  S
Cu292       N294   2.063       .  S
Cu292       N300   2.063       .  S
N293        N294   1.323   1_655  A
N293        C297   1.343       .  A
N294        C295   1.344       .  A
C295        C296   1.380   1_445  A
C295        H298   1.082       .  S
C296        C297   1.381   1_565  A
C297        H299   1.082       .  S
N300        N301   1.320       .  A
N300        C304   1.342       .  A
N301        C302   1.343       .  A
C302        C303   1.387       .  A
C302        H305   1.081       .  S
C303        C304   1.386       .  A
C303        C831   1.481       .  S
C304        H306   1.082       .  S
N307        N308   1.321       .  A
N307        C311   1.346       .  A
N307       Cu315   2.083       .  S
N308        C309   1.344       .  A
N308       Cu314   2.061       .  S
C309        C310   1.383       .  A
C309        H312   1.081       .  S
C310        C311   1.387       .  A
C310        C759   1.479       .  S
C311        H313   1.082       .  S
Cu314       N317   2.060       .  S
Cu315       N325   2.083       .  S
Cu316       N318   2.076       .  S
Cu316       N324   2.077       .  S
N317        N318   1.322       .  A
N317        C321   1.342       .  A
N318        C319   1.346       .  A
C319        C320   1.383       .  A
C319        H322   1.082       .  S
C320        C321   1.379       .  A
C321        H323   1.082       .  S
N324        N325   1.323       .  A
N324        C328   1.346       .  A
N325        C326   1.346       .  A
C326        C327   1.386       .  A
C326        H329   1.082       .  S
C327        C328   1.385       .  A
C327        C780   1.481       .  S
C328        H330   1.082       .  S
N331        N332   1.322       .  A
N331        C335   1.345       .  A
N331       Cu339   2.073       .  S
N332        C333   1.344       .  A
N332       Cu338   2.072       .  S
C333        C334   1.385       .  A
C333        H336   1.082       .  S
C334        C335   1.385       .  A
C334        C732   1.479       .  S
C335        H337   1.082       .  S
Cu338       N341   2.072       .  S
Cu339       N349   2.073   1_455  S
Cu340       N342   2.073       .  S
Cu340       N348   2.073       .  S
N341        N342   1.323   1_455  A
N341        C345   1.345       .  A
N342        C343   1.345       .  A
C343        C344   1.381       .  A
C343        H346   1.082       .  S
C344        C345   1.382   1_655  A
C344        C366   1.465   1_545  S
C345        H347   1.082       .  S
N348        N349   1.322       .  A
N348        C352   1.345       .  A
N349        C350   1.344       .  A
C350        C351   1.385       .  A
C350        H353   1.081       .  S
C351        C352   1.385       .  A
C351        C711   1.478       .  S
C352        H354   1.082       .  S
O355       Cu363   2.003       .  S
O355        C365   1.277   1_455  A
O356       Cu363   2.008   1_655  S
O356        C366   1.277       .  A
O357       Cu363   2.014   1_655  S
O357        C367   1.278       .  A
O358       Cu363   2.014       .  S
O358        C368   1.278       .  A
O359       Cu364   2.012   1_455  S
O359        C368   1.278       .  A
O360       Cu364   2.014       .  S
O360        C367   1.278       .  A
O361       Cu364   2.007   1_455  S
O361        C366   1.277   1_455  A
O362       Cu364   2.006       .  S
O362        C365   1.277       .  A
Cu363      Cu364   2.372   1_455  S
C365        C406   1.464       .  S
C367        C382   1.470       .  S
C368        C430   1.470       .  S
N369        N370   1.321       .  A
N369        C373   1.344       .  A
N369       Cu377   2.064       .  S
N370        C371   1.345       .  A
N370       Cu376   2.083       .  S
C371        C372   1.390       .  A
C371        H374   1.082       .  S
C372        C373   1.386       .  A
C372        C660   1.486       .  S
C373        H375   1.082       .  S
Cu376       N379   2.084       .  S
Cu377       N387   2.064       .  S
Cu378       N380   2.073       .  S
Cu378       N386   2.073       .  S
N379        N380   1.323       .  A
N379        C383   1.347       .  A
N380        C381   1.345       .  A
C381        C382   1.381       .  A
C381        H384   1.082       .  S
C382        C383   1.385       .  A
C383        H385   1.082       .  S
N386        N387   1.321       .  A
N386        C390   1.345       .  A
N387        C388   1.343       .  A
C388        C389   1.385       .  A
C388        H391   1.082       .  S
C389        C390   1.386       .  A
C389        C687   1.479       .  S
C390        H392   1.082       .  S
N393        N394   1.321       .  A
N393        C397   1.343       .  A
N393       Cu401   2.061       .  S
N394        C395   1.344       .  A
N394       Cu400   2.072       .  S
C395        C396   1.387       .  A
C395        H398   1.082       .  S
C396        C397   1.384       .  A
C396        C615   1.479       .  S
C397        H399   1.081       .  S
Cu400       N403   2.072       .  S
Cu401       N411   2.061   1_455  S
Cu402       N404   2.062       .  S
Cu402       N410   2.062       .  S
N403        N404   1.322   1_455  A
N403        C407   1.344       .  A
N404        C405   1.344       .  A
C405        C406   1.380       .  A
C405        H408   1.082       .  S
C406        C407   1.382   1_655  A
C407        H409   1.082       .  S
N410        N411   1.321       .  A
N410        C414   1.343       .  A
N411        C412   1.342       .  A
C412        C413   1.383       .  A
C412        H415   1.081       .  S
C413        C414   1.383       .  A
C413        C636   1.471       .  S
C414        H416   1.081       .  S
N417        N418   1.322       .  A
N417        C421   1.345       .  A
N417       Cu425   2.069       .  S
N418        C419   1.345       .  A
N418       Cu424   2.077       .  S
C419        C420   1.386       .  A
C419        H422   1.082       .  S
C420        C421   1.385       .  A
C420        C588   1.480       .  S
C421        H423   1.082       .  S
Cu424       N427   2.077       .  S
Cu425       N435   2.069       .  S
Cu426       N428   2.076       .  S
Cu426       N434   2.076       .  S
N427        N428   1.323       .  A
N427        C431   1.346       .  A
N428        C429   1.346       .  A
C429        C430   1.383       .  A
C429        H432   1.082       .  S
C430        C431   1.383       .  A
C431        H433   1.082       .  S
N434        N435   1.322       .  A
N434        C438   1.345       .  A
N435        C436   1.344       .  A
C436        C437   1.384       .  A
C436        H439   1.081       .  S
C437        C438   1.386       .  A
C437        C564   1.480       .  S
C438        H440   1.081       .  S
O441       Cu449   2.002       .  S
O441        C451   1.278       .  A
O442       Cu449   2.009   1_556  S
O442        C452   1.278       .  A
O443       Cu449   2.017       .  S
O443        C453   1.279       .  A
O444       Cu449   2.018   1_556  S
O444        C454   1.280       .  A
O445       Cu450   2.000   1_556  S
O445        C454   1.277       .  A
O446       Cu450   2.000       .  S
O446        C453   1.277       .  A
O447       Cu450   2.004   1_556  S
O447        C452   1.278       .  A
O448       Cu450   2.008       .  S
O448        C451   1.278       .  A
Cu449      Cu450   2.371       .  S
C451       C1140   1.475       .  S
C452        C828   1.477       .  S
C453        C735   1.481       .  S
C454       C1044   1.483       .  S
O455       Cu463   2.005   1_556  S
O455        C465   1.278       .  A
O456       Cu463   2.009       .  S
O456        C466   1.278       .  A
O457       Cu463   2.018   1_556  S
O457        C467   1.280       .  A
O458       Cu463   2.018       .  S
O458        C468   1.279       .  A
O459       Cu464   2.004       .  S
O459        C468   1.278       .  A
O460       Cu464   2.005   1_556  S
O460        C467   1.278       .  A
O461       Cu464   2.007       .  S
O461        C466   1.278       .  A
O462       Cu464   2.007   1_556  S
O462        C465   1.278       .  A
Cu463      Cu464   2.371       .  S
C465        C996   1.478       .  S
C466        C684   1.479       .  S
C467        C783   1.484       .  S
C468       C1287   1.481       .  S
O469       Cu477   2.008       .  S
O469        C479   1.278       .  A
O470       Cu477   2.008   1_554  S
O470        C480   1.278       .  A
O471       Cu477   1.996       .  S
O471        C481   1.277       .  A
O472       Cu477   1.994   1_554  S
O472        C482   1.277       .  A
O473       Cu478   2.002   1_554  S
O473        C482   1.277       .  A
O474       Cu478   2.004       .  S
O474        C481   1.278       .  A
O475       Cu478   2.013   1_554  S
O475        C480   1.279       .  A
O476       Cu478   2.015       .  S
O476        C479   1.279       .  A
Cu477      Cu478   2.372       .  S
C479        C927   1.479       .  S
C480       C1239   1.482       .  S
C481        C951   1.475       .  S
C482        C639   1.474       .  S
O483       Cu491   2.014   1_554  S
O483        C493   1.279       .  A
O484       Cu491   2.012       .  S
O484        C494   1.279       .  A
O485       Cu491   1.996   1_554  S
O485        C495   1.276       .  A
O486       Cu491   1.996       .  S
O486        C496   1.277       .  A
O487       Cu492   2.015       .  S
O487        C496   1.279       .  A
O488       Cu492   2.019   1_554  S
O488        C495   1.280       .  A
O489       Cu492   2.007       .  S
O489        C494   1.277       .  A
O490       Cu492   2.003   1_554  S
O490        C493   1.277       .  A
Cu491      Cu492   2.371       .  S
C493        C591   1.481       .  S
C494       C1095   1.478       .  S
C495       C1188   1.480       .  S
C496        C876   1.480       .  S
O497       Cu505   1.998       .  S
O497        C507   1.277       .  A
O498       Cu505   2.000       .  S
O498        C508   1.276       .  A
O499       Cu505   2.017       .  S
O499        C509   1.279       .  A
O500       Cu505   2.016       .  S
O500        C510   1.279       .  A
O501       Cu506   1.999       .  S
O501        C510   1.277       .  A
O502       Cu506   2.006       .  S
O502        C509   1.278       .  A
O503       Cu506   2.008       .  S
O503        C508   1.280       .  A
O504       Cu506   2.016       .  S
O504        C507   1.278       .  A
Cu505      Cu506   2.372       .  S
C507        C900   1.476       .  S
C508       C1167   1.479       .  S
C509       C1068   1.481       .  S
C510        C612   1.478       .  S
O511       Cu519   2.001       .  S
O511        C521   1.277       .  A
O512       Cu519   2.002       .  S
O512        C522   1.277       .  A
O513       Cu519   2.007       .  S
O513        C523   1.279       .  A
O514       Cu519   2.012       .  S
O514        C524   1.279       .  A
O515       Cu520   1.998       .  S
O515        C524   1.277       .  A
O516       Cu520   2.003       .  S
O516        C523   1.277       .  A
O517       Cu520   2.014       .  S
O517        C522   1.280       .  A
O518       Cu520   2.010       .  S
O518        C521   1.278       .  A
Cu519      Cu520   2.372       .  S
C521        C855   1.474       .  S
C522       C1308   1.481       .  S
C523       C1020   1.480       .  S
C524        C567   1.477       .  S
O525       Cu533   2.002       .  S
O525        C535   1.278       .  A
O526       Cu533   2.005       .  S
O526        C536   1.278       .  A
O527       Cu533   2.004       .  S
O527        C537   1.277       .  A
O528       Cu533   2.001       .  S
O528        C538   1.278       .  A
O529       Cu534   2.019       .  S
O529        C538   1.279       .  A
O530       Cu534   2.011       .  S
O530        C537   1.279       .  A
O531       Cu534   2.014       .  S
O531        C536   1.279       .  A
O532       Cu534   2.011       .  S
O532        C535   1.278       .  A
Cu533      Cu534   2.371       .  S
C535        C972   1.478       .  S
C536        C708   1.483       .  S
C537        C807   1.480       .  S
C538       C1263   1.482       .  S
O539       Cu547   2.007       .  S
O539        C549   1.277       .  A
O540       Cu547   2.006       .  S
O540        C550   1.279       .  A
O541       Cu547   2.011       .  S
O541        C551   1.278       .  A
O542       Cu547   2.012       .  S
O542        C552   1.279       .  A
O543       Cu548   1.997       .  S
O543        C552   1.277       .  A
O544       Cu548   2.000       .  S
O544        C551   1.278       .  A
O545       Cu548   2.015       .  S
O545        C550   1.279       .  A
O546       Cu548   2.010       .  S
O546        C549   1.279       .  A
Cu547      Cu548   2.372       .  S
C549       C1212   1.476       .  S
C550        C756   1.483       .  S
C551        C663   1.477       .  S
C552       C1116   1.476       .  S
C553        C554   1.398       .  A
C553        C558   1.403       .  A
C553        H569   1.085       .  S
C554        C555   1.403       .  A
C554        H570   1.082       .  S
C555        C565   1.402   1_545  A
C555        C556   1.411       .  A
C556        C562   1.411   1_545  A
C556        C557   1.411       .  A
C557        C559   1.412       .  A
C557        C558   1.411       .  A
C558        C566   1.400       .  A
C559        C568   1.404       .  A
C559        C560   1.404   1_545  A
C560        C561   1.399       .  A
C560        H571   1.083       .  S
C561        C562   1.404       .  A
C561        H572   1.084       .  S
C562        C563   1.403       .  A
C563        C564   1.407       .  A
C563        H573   1.084       .  S
C564        C565   1.406       .  A
C565        H574   1.082   1_565  S
C566        C567   1.406       .  A
C566        H575   1.085       .  S
C567        C568   1.407       .  A
C568        H576   1.083       .  S
C577        C578   1.398       .  A
C577        C582   1.403       .  A
C577        H593   1.084       .  S
C578        C579   1.403       .  A
C578        H594   1.083       .  S
C579        C589   1.402       .  A
C579        C580   1.411       .  A
C580        C586   1.412       .  A
C580        C581   1.412       .  A
C581        C583   1.411       .  A
C581        C582   1.412       .  A
C582        C590   1.402       .  A
C583        C592   1.403       .  A
C583        C584   1.404       .  A
C584        C585   1.399       .  A
C584        H595   1.083       .  S
C585        C586   1.403       .  A
C585        H596   1.084       .  S
C586        C587   1.403       .  A
C587        C588   1.406       .  A
C587        H597   1.084       .  S
C588        C589   1.406       .  A
C589        H598   1.083       .  S
C590        C591   1.407       .  A
C590        H599   1.085       .  S
C591        C592   1.408       .  A
C592        H600   1.083       .  S
C601        C602   1.398       .  A
C601        C606   1.403       .  A
C601        H617   1.084       .  S
C602        C603   1.403       .  A
C602        H618   1.083       .  S
C603        C613   1.401       .  A
C603        C604   1.411       .  A
C604        C610   1.412       .  A
C604        C605   1.411       .  A
C605        C607   1.411       .  A
C605        C606   1.411       .  A
C606        C614   1.401       .  A
C607        C616   1.402       .  A
C607        C608   1.404       .  A
C608        C609   1.399       .  A
C608        H619   1.083       .  S
C609        C610   1.403       .  A
C609        H620   1.084       .  S
C610        C611   1.403       .  A
C611        C612   1.406       .  A
C611        H621   1.085       .  S
C612        C613   1.407       .  A
C613        H622   1.084       .  S
C614        C615   1.406       .  A
C614        H623   1.084       .  S
C615        C616   1.407       .  A
C616        H624   1.083       .  S
C625        C626   1.399       .  A
C625        C630   1.404       .  A
C625        H641   1.083       .  S
C626        C627   1.403       .  A
C626        H642   1.084       .  S
C627        C637   1.401       .  A
C627        C628   1.411       .  A
C628        C634   1.411       .  A
C628        C629   1.408       .  A
C629        C631   1.411       .  A
C629        C630   1.411       .  A
C630        C638   1.402       .  A
C631        C640   1.397       .  A
C631        C632   1.402       .  A
C632        C633   1.396       .  A
C632        H643   1.084       .  S
C633        C634   1.402       .  A
C633        H644   1.083       .  S
C634        C635   1.398       .  A
C635        C636   1.403       .  A
C635        H645   1.084       .  S
C636        C637   1.405       .  A
C637        H646   1.084       .  S
C638        C639   1.407       .  A
C638        H647   1.084       .  S
C639        C640   1.405       .  A
C640        H648   1.085       .  S
C649        C650   1.400       .  A
C649        C654   1.404       .  A
C649        H665   1.083       .  S
C650        C651   1.405       .  A
C650        H666   1.084       .  S
C651        C661   1.404       .  A
C651        C652   1.410       .  A
C652        C658   1.411       .  A
C652        C653   1.411       .  A
C653        C655   1.411       .  A
C653        C654   1.412       .  A
C654        C662   1.405       .  A
C655        C664   1.399       .  A
C655        C656   1.403       .  A
C656        C657   1.397       .  A
C656        H667   1.083       .  S
C657        C658   1.402       .  A
C657        H668   1.085       .  S
C658        C659   1.400       .  A
C659        C660   1.406       .  A
C659        H669   1.084       .  S
C660        C661   1.410       .  A
C661        H670   1.083       .  S
C662        C663   1.407       .  A
C662        H671   1.084       .  S
C663        C664   1.406       .  A
C664        H672   1.084       .  S
C673        C674   1.398   1_565  A
C673        C678   1.403       .  A
C673        H689   1.083       .  S
C674        C675   1.403       .  A
C674        H690   1.084   1_545  S
C675        C685   1.402       .  A
C675        C676   1.411       .  A
C676        C682   1.411       .  A
C676        C677   1.411       .  A
C677        C679   1.412       .  A
C677        C678   1.411   1_545  A
C678        C686   1.401       .  A
C679        C688   1.402       .  A
C679        C680   1.403       .  A
C680        C681   1.399       .  A
C680        H691   1.084       .  S
C681        C682   1.404       .  A
C681        H692   1.083       .  S
C682        C683   1.403       .  A
C683        C684   1.407       .  A
C683        H693   1.084       .  S
C684        C685   1.407       .  A
C685        H694   1.085       .  S
C686        C687   1.407       .  A
C686        H695   1.083       .  S
C687        C688   1.406   1_565  A
C688        H696   1.084       .  S
C697        C698   1.399       .  A
C697        C702   1.403       .  A
C697        H713   1.085       .  S
C698        C699   1.404       .  A
C698        H714   1.083       .  S
C699        C709   1.403       .  A
C699        C700   1.411       .  A
C700        C706   1.411       .  A
C700        C701   1.412       .  A
C701        C703   1.412       .  A
C701        C702   1.411       .  A
C702        C710   1.402       .  A
C703        C712   1.404       .  A
C703        C704   1.404       .  A
C704        C705   1.399       .  A
C704        H715   1.082       .  S
C705        C706   1.403       .  A
C705        H716   1.085       .  S
C706        C707   1.402       .  A
C707        C708   1.408       .  A
C707        H717   1.085       .  S
C708        C709   1.408       .  A
C709        H718   1.083       .  S
C710        C711   1.405       .  A
C710        H719   1.085       .  S
C711        C712   1.406       .  A
C712        H720   1.083       .  S
C721        C722   1.399       .  A
C721        C726   1.404       .  A
C721        H737   1.084       .  S
C722        C723   1.404       .  A
C722        H738   1.084       .  S
C723        C733   1.403       .  A
C723        C724   1.411       .  A
C724        C730   1.412       .  A
C724        C725   1.411       .  A
C725        C727   1.411       .  A
C725        C726   1.412       .  A
C726        C734   1.404       .  A
C727        C736   1.401       .  A
C727        C728   1.403       .  A
C728        C729   1.398       .  A
C728        H739   1.084       .  S
C729        C730   1.403       .  A
C729        H740   1.084       .  S
C730        C731   1.402       .  A
C731        C732   1.406       .  A
C731        H741   1.084       .  S
C732        C733   1.407       .  A
C733        H742   1.084       .  S
C734        C735   1.407       .  A
C734        H743   1.084       .  S
C735        C736   1.407       .  A
C736        H744   1.084       .  S
C745        C746   1.401       .  A
C745        C750   1.404       .  A
C745        H761   1.085       .  S
C746        C747   1.405       .  A
C746        H762   1.082       .  S
C747        C757   1.406       .  A
C747        C748   1.411       .  A
C748        C754   1.411       .  A
C748        C749   1.412       .  A
C749        C751   1.412       .  A
C749        C750   1.411       .  A
C750        C758   1.404       .  A
C751        C760   1.402       .  A
C751        C752   1.403       .  A
C752        C753   1.397       .  A
C752        H763   1.081       .  S
C753        C754   1.402       .  A
C753        H764   1.086       .  S
C754        C755   1.400       .  A
C755        C756   1.407       .  A
C755        H765   1.086       .  S
C756        C757   1.409       .  A
C757        H766   1.082       .  S
C758        C759   1.407       .  A
C758        H767   1.085       .  S
C759        C760   1.405       .  A
C760        H768   1.082       .  S
C769        C770   1.399       .  A
C769        C774   1.404   1_565  A
C769        H785   1.083       .  S
C770        C771   1.403       .  A
C770        H786   1.084       .  S
C771        C781   1.403       .  A
C771        C772   1.412   1_565  A
C772        C778   1.411       .  A
C772        C773   1.413       .  A
C773        C775   1.412       .  A
C773        C774   1.411       .  A
C774        C782   1.403       .  A
C775        C784   1.405       .  A
C775        C776   1.404       .  A
C776        C777   1.400       .  A
C776        H787   1.084       .  S
C777        C778   1.404       .  A
C777        H788   1.083       .  S
C778        C779   1.405       .  A
C779        C780   1.407   1_545  A
C779        H789   1.084       .  S
C780        C781   1.406       .  A
C781        H790   1.085       .  S
C782        C783   1.409       .  A
C782        H791   1.084       .  S
C783        C784   1.408       .  A
C784        H792   1.084       .  S
C793        C794   1.398       .  A
C793        C798   1.403       .  A
C793        H809   1.085       .  S
C794        C795   1.404       .  A
C794        H810   1.082       .  S
C795        C805   1.401       .  A
C795        C796   1.410       .  A
C796        C802   1.412       .  A
C796        C797   1.411       .  A
C797        C799   1.411       .  A
C797        C798   1.412       .  A
C798        C806   1.402       .  A
C799        C808   1.403       .  A
C799        C800   1.404       .  A
C800        C801   1.399       .  A
C800        H811   1.082       .  S
C801        C802   1.403       .  A
C801        H812   1.085       .  S
C802        C803   1.403       .  A
C803        C804   1.407       .  A
C803        H813   1.084       .  S
C804        C805   1.408       .  A
C805        H814   1.081       .  S
C806        C807   1.406       .  A
C806        H815   1.085       .  S
C807        C808   1.408       .  A
C808        H816   1.083       .  S
C817        C818   1.399       .  A
C817        C822   1.404       .  A
C817        H833   1.084       .  S
C818        C819   1.404       .  A
C818        H834   1.083       .  S
C819        C829   1.403       .  A
C819        C820   1.412       .  A
C820        C826   1.411       .  A
C820        C821   1.410       .  A
C821        C823   1.411       .  A
C821        C822   1.411       .  A
C822        C830   1.402       .  A
C823        C832   1.400       .  A
C823        C824   1.403       .  A
C824        C825   1.397       .  A
C824        H835   1.083       .  S
C825        C826   1.402       .  A
C825        H836   1.084       .  S
C826        C827   1.400       .  A
C827        C828   1.405       .  A
C827        H837   1.085       .  S
C828        C829   1.407       .  A
C829        H838   1.084       .  S
C830        C831   1.408       .  A
C830        H839   1.083       .  S
C831        C832   1.406       .  A
C832        H840   1.082       .  S
C841        C842   1.398       .  A
C841        C846   1.404   1_565  A
C841        H857   1.081       .  S
C842        C843   1.403       .  A
C842        H858   1.086       .  S
C843        C853   1.400       .  A
C843        C844   1.411       .  A
C844        C850   1.410       .  A
C844        C845   1.410   1_565  A
C845        C847   1.412       .  A
C845        C846   1.411       .  A
C846        C854   1.401       .  A
C847        C856   1.402       .  A
C847        C848   1.403       .  A
C848        C849   1.399       .  A
C848        H859   1.086       .  S
C849        C850   1.404   1_545  A
C849        H860   1.081       .  S
C850        C851   1.402       .  A
C851        C852   1.409       .  A
C851        H861   1.080       .  S
C852        C853   1.407       .  A
C853        H862   1.085       .  S
C854        C855   1.406       .  A
C854        H863   1.083       .  S
C855        C856   1.405       .  A
C856        H864   1.086       .  S
C865        C866   1.398       .  A
C865        C870   1.403       .  A
C865        H881   1.083       .  S
C866        C867   1.404       .  A
C866        H882   1.084       .  S
C867        C877   1.401       .  A
C867        C868   1.410       .  A
C868        C874   1.412       .  A
C868        C869   1.410       .  A
C869        C871   1.411       .  A
C869        C870   1.412       .  A
C870        C878   1.402       .  A
C871        C880   1.401       .  A
C871        C872   1.403       .  A
C872        C873   1.398       .  A
C872        H883   1.083       .  S
C873        C874   1.403       .  A
C873        H884   1.084       .  S
C874        C875   1.403       .  A
C875        C876   1.407       .  A
C875        H885   1.084       .  S
C876        C877   1.408       .  A
C877        H886   1.084       .  S
C878        C879   1.405       .  A
C878        H887   1.084       .  S
C879        C880   1.404       .  A
C880        H888   1.084       .  S
C889        C890   1.395       .  A
C889        C894   1.401       .  A
C889        H905   1.087       .  S
C890        C891   1.403       .  A
C890        H906   1.081       .  S
C891        C901   1.398       .  A
C891        C892   1.410       .  A
C892        C898   1.413       .  A
C892        C893   1.411       .  A
C893        C895   1.410       .  A
C893        C894   1.411       .  A
C894        C902   1.398       .  A
C895        C904   1.406       .  A
C895        C896   1.406       .  A
C896        C897   1.401       .  A
C896        H907   1.081       .  S
C897        C898   1.404       .  A
C897        H908   1.086       .  S
C898        C899   1.406       .  A
C899        C900   1.407       .  A
C899        H909   1.086       .  S
C900        C901   1.405       .  A
C901        H910   1.083       .  S
C902        C903   1.405       .  A
C902        H911   1.085       .  S
C903        C904   1.411       .  A
C904        H912   1.080       .  S
C913        C914   1.398       .  A
C913        C918   1.403       .  A
C913        H929   1.084       .  S
C914        C915   1.404       .  A
C914        H930   1.084       .  S
C915        C925   1.401       .  A
C915        C916   1.410       .  A
C916        C922   1.412       .  A
C916        C917   1.412       .  A
C917        C919   1.411       .  A
C917        C918   1.412       .  A
C918        C926   1.403       .  A
C919        C928   1.403       .  A
C919        C920   1.404       .  A
C920        C921   1.399       .  A
C920        H931   1.083       .  S
C921        C922   1.403       .  A
C921        H932   1.084       .  S
C922        C923   1.404       .  A
C923        C924   1.408       .  A
C923        H933   1.084       .  S
C924        C925   1.408       .  A
C925        H934   1.082       .  S
C926        C927   1.406       .  A
C926        H935   1.084       .  S
C927        C928   1.407       .  A
C928        H936   1.084       .  S
C937        C938   1.398       .  A
C937        C942   1.403       .  A
C937        H953   1.084       .  S
C938        C939   1.403       .  A
C938        H954   1.083       .  S
C939        C949   1.401       .  A
C939        C940   1.411       .  A
C940        C946   1.411       .  A
C940        C941   1.409       .  A
C941        C943   1.411       .  A
C941        C942   1.411       .  A
C942        C950   1.400       .  A
C943        C952   1.401       .  A
C943        C944   1.403       .  A
C944        C945   1.398       .  A
C944        H955   1.083       .  S
C945        C946   1.403       .  A
C945        H956   1.085       .  S
C946        C947   1.401       .  A
C947        C948   1.407       .  A
C947        H957   1.084       .  S
C948        C949   1.407       .  A
C949        H958   1.082       .  S
C950        C951   1.405       .  A
C950        H959   1.085       .  S
C951        C952   1.406       .  A
C952        H960   1.083       .  S
C961        C962   1.399       .  A
C961        C966   1.403       .  A
C961        H977   1.084       .  S
C962        C963   1.403       .  A
C962        H978   1.084       .  S
C963        C973   1.403       .  A
C963        C964   1.412       .  A
C964        C970   1.411       .  A
C964        C965   1.411       .  A
C965        C967   1.411       .  A
C965        C966   1.411       .  A
C966        C974   1.402       .  A
C967        C976   1.401       .  A
C967        C968   1.403       .  A
C968        C969   1.398       .  A
C968        H979   1.084       .  S
C969        C970   1.403       .  A
C969        H980   1.083       .  S
C970        C971   1.401       .  A
C971        C972   1.407       .  A
C971        H981   1.084       .  S
C972        C973   1.407       .  A
C973        H982   1.084       .  S
C974        C975   1.406       .  A
C974        H983   1.084       .  S
C975        C976   1.406       .  A
C976        H984   1.084       .  S
C985        C986   1.399       .  A
C985        C990   1.404       .  A
C985       H1001   1.083       .  S
C986        C987   1.403       .  A
C986       H1002   1.084       .  S
C987        C997   1.402       .  A
C987        C988   1.411       .  A
C988        C994   1.411       .  A
C988        C989   1.411       .  A
C989        C991   1.411       .  A
C989        C990   1.411       .  A
C990        C998   1.403       .  A
C991       C1000   1.402       .  A
C991        C992   1.403       .  A
C992        C993   1.398       .  A
C992       H1003   1.085       .  S
C993        C994   1.403       .  A
C993       H1004   1.083       .  S
C994        C995   1.402       .  A
C995        C996   1.407       .  A
C995       H1005   1.083       .  S
C996        C997   1.406       .  A
C997       H1006   1.085       .  S
C998        C999   1.407       .  A
C998       H1007   1.083       .  S
C999       C1000   1.407       .  A
C1000      H1008   1.084       .  S
C1009      C1010   1.399       .  A
C1009      C1014   1.404       .  A
C1009      H1025   1.083       .  S
C1010      C1011   1.404       .  A
C1010      H1026   1.084       .  S
C1011      C1021   1.403       .  A
C1011      C1012   1.411       .  A
C1012      C1018   1.411       .  A
C1012      C1013   1.410       .  A
C1013      C1015   1.412       .  A
C1013      C1014   1.412       .  A
C1014      C1022   1.403       .  A
C1015      C1024   1.400       .  A
C1015      C1016   1.402       .  A
C1016      C1017   1.397       .  A
C1016      H1027   1.084       .  S
C1017      C1018   1.403       .  A
C1017      H1028   1.083       .  S
C1018      C1019   1.400       .  A
C1019      C1020   1.406       .  A
C1019      H1029   1.084       .  S
C1020      C1021   1.408       .  A
C1021      H1030   1.085       .  S
C1022      C1023   1.405       .  A
C1022      H1031   1.083       .  S
C1023      C1024   1.403       .  A
C1024      H1032   1.085       .  S
C1033      C1034   1.399       .  A
C1033      C1038   1.403       .  A
C1033      H1049   1.084       .  S
C1034      C1035   1.404       .  A
C1034      H1050   1.083       .  S
C1035      C1045   1.402       .  A
C1035      C1036   1.410       .  A
C1036      C1042   1.412       .  A
C1036      C1037   1.412       .  A
C1037      C1039   1.411       .  A
C1037      C1038   1.412       .  A
C1038      C1046   1.403       .  A
C1039      C1048   1.402       .  A
C1039      C1040   1.403       .  A
C1040      C1041   1.399       .  A
C1040      H1051   1.083       .  S
C1041      C1042   1.403       .  A
C1041      H1052   1.084       .  S
C1042      C1043   1.403       .  A
C1043      C1044   1.407       .  A
C1043      H1053   1.085       .  S
C1044      C1045   1.409       .  A
C1045      H1054   1.083       .  S
C1046      C1047   1.406       .  A
C1046      H1055   1.085       .  S
C1047      C1048   1.405       .  A
C1048      H1056   1.084       .  S
C1057      C1058   1.399       .  A
C1057      C1062   1.404       .  A
C1057      H1073   1.082       .  S
C1058      C1059   1.403       .  A
C1058      H1074   1.085       .  S
C1059      C1069   1.403       .  A
C1059      C1060   1.411       .  A
C1060      C1066   1.412       .  A
C1060      C1061   1.413       .  A
C1061      C1063   1.411       .  A
C1061      C1062   1.411       .  A
C1062      C1070   1.405       .  A
C1063      C1072   1.404       .  A
C1063      C1064   1.404       .  A
C1064      C1065   1.399       .  A
C1064      H1075   1.084       .  S
C1065      C1066   1.403       .  A
C1065      H1076   1.083       .  S
C1066      C1067   1.404       .  A
C1067      C1068   1.407       .  A
C1067      H1077   1.084       .  S
C1068      C1069   1.408       .  A
C1069      H1078   1.085       .  S
C1070      C1071   1.409       .  A
C1070      H1079   1.081       .  S
C1071      C1072   1.408       .  A
C1072      H1080   1.083       .  S
C1081      C1082   1.399       .  A
C1081      C1086   1.404       .  A
C1081      H1097   1.084       .  S
C1082      C1083   1.404       .  A
C1082      H1098   1.084       .  S
C1083      C1093   1.403       .  A
C1083      C1084   1.410       .  A
C1084      C1090   1.411       .  A
C1084      C1085   1.412       .  A
C1085      C1087   1.411       .  A
C1085      C1086   1.411       .  A
C1086      C1094   1.404       .  A
C1087      C1096   1.402       .  A
C1087      C1088   1.403       .  A
C1088      C1089   1.398       .  A
C1088      H1099   1.083       .  S
C1089      C1090   1.403       .  A
C1089      H1100   1.084       .  S
C1090      C1091   1.401       .  A
C1091      C1092   1.408       .  A
C1091      H1101   1.083       .  S
C1092      C1093   1.409       .  A
C1093      H1102   1.082       .  S
C1094      C1095   1.407       .  A
C1094      H1103   1.084       .  S
C1095      C1096   1.406       .  A
C1096      H1104   1.084       .  S
C1105      C1106   1.398       .  A
C1105      C1110   1.403       .  A
C1105      H1121   1.085       .  S
C1106      C1107   1.404       .  A
C1106      H1122   1.083       .  S
C1107      C1117   1.401       .  A
C1107      C1108   1.411       .  A
C1108      C1114   1.412       .  A
C1108      C1109   1.410       .  A
C1109      C1111   1.410       .  A
C1109      C1110   1.411       .  A
C1110      C1118   1.402       .  A
C1111      C1120   1.400       .  A
C1111      C1112   1.404       .  A
C1112      C1113   1.398       .  A
C1112      H1123   1.082       .  S
C1113      C1114   1.402       .  A
C1113      H1124   1.085       .  S
C1114      C1115   1.401       .  A
C1115      C1116   1.405       .  A
C1115      H1125   1.085       .  S
C1116      C1117   1.407       .  A
C1117      H1126   1.084       .  S
C1118      C1119   1.407       .  A
C1118      H1127   1.084       .  S
C1119      C1120   1.408       .  A
C1120      H1128   1.081       .  S
C1129      C1130   1.400       .  A
C1129      C1134   1.404       .  A
C1129      H1145   1.083       .  S
C1130      C1131   1.404       .  A
C1130      H1146   1.084       .  S
C1131      C1141   1.404       .  A
C1131      C1132   1.412       .  A
C1132      C1138   1.411       .  A
C1132      C1133   1.411       .  A
C1133      C1135   1.411       .  A
C1133      C1134   1.411       .  A
C1134      C1142   1.404       .  A
C1135      C1144   1.400       .  A
C1135      C1136   1.403       .  A
C1136      C1137   1.397       .  A
C1136      H1147   1.084       .  S
C1137      C1138   1.403       .  A
C1137      H1148   1.084       .  S
C1138      C1139   1.400       .  A
C1139      C1140   1.405       .  A
C1139      H1149   1.084       .  S
C1140      C1141   1.406       .  A
C1141      H1150   1.084       .  S
C1142      C1143   1.408       .  A
C1142      H1151   1.083       .  S
C1143      C1144   1.406       .  A
C1144      H1152   1.083       .  S
C1153      C1154   1.401       .  A
C1153      C1158   1.405       .  A
C1153      H1169   1.082       .  S
C1154      C1155   1.404       .  A
C1154      H1170   1.085       .  S
C1155      C1165   1.406       .  A
C1155      C1156   1.412       .  A
C1156      C1162   1.410       .  A
C1156      C1157   1.411       .  A
C1157      C1159   1.411       .  A
C1157      C1158   1.411       .  A
C1158      C1166   1.405       .  A
C1159      C1168   1.398       .  A
C1159      C1160   1.401       .  A
C1160      C1161   1.395       .  A
C1160      H1171   1.085       .  S
C1161      C1162   1.403       .  A
C1161      H1172   1.082       .  S
C1162      C1163   1.398       .  A
C1163      C1164   1.406       .  A
C1163      H1173   1.082       .  S
C1164      C1165   1.408       .  A
C1165      H1174   1.085       .  S
C1166      C1167   1.410       .  A
C1166      H1175   1.083       .  S
C1167      C1168   1.404       .  A
C1168      H1176   1.085       .  S
C1177      C1178   1.398       .  A
C1177      C1182   1.403       .  A
C1177      H1193   1.083       .  S
C1178      C1179   1.403       .  A
C1178      H1194   1.084       .  S
C1179      C1189   1.403       .  A
C1179      C1180   1.412       .  A
C1180      C1186   1.410       .  A
C1180      C1181   1.411       .  A
C1181      C1183   1.412       .  A
C1181      C1182   1.411       .  A
C1182      C1190   1.402       .  A
C1183      C1192   1.403       .  A
C1183      C1184   1.403       .  A
C1184      C1185   1.399       .  A
C1184      H1195   1.084       .  S
C1185      C1186   1.404       .  A
C1185      H1196   1.083       .  S
C1186      C1187   1.402       .  A
C1187      C1188   1.408       .  A
C1187      H1197   1.084       .  S
C1188      C1189   1.406       .  A
C1189      H1198   1.084       .  S
C1190      C1191   1.407       .  A
C1190      H1199   1.083       .  S
C1191      C1192   1.407       .  A
C1192      H1200   1.083       .  S
C1201      C1202   1.400       .  A
C1201      C1206   1.404       .  A
C1201      H1217   1.085       .  S
C1202      C1203   1.404       .  A
C1202      H1218   1.082       .  S
C1203      C1213   1.404       .  A
C1203      C1204   1.412       .  A
C1204      C1210   1.412       .  A
C1204      C1205   1.412       .  A
C1205      C1207   1.410       .  A
C1205      C1206   1.411       .  A
C1206      C1214   1.404       .  A
C1207      C1216   1.402       .  A
C1207      C1208   1.403       .  A
C1208      C1209   1.398       .  A
C1208      H1219   1.083       .  S
C1209      C1210   1.402       .  A
C1209      H1220   1.084       .  S
C1210      C1211   1.401       .  A
C1211      C1212   1.405       .  A
C1211      H1221   1.085       .  S
C1212      C1213   1.407       .  A
C1213      H1222   1.083       .  S
C1214      C1215   1.409       .  A
C1214      H1223   1.084       .  S
C1215      C1216   1.408       .  A
C1216      H1224   1.082       .  S
C1225      C1226   1.399       .  A
C1225      C1230   1.403       .  A
C1225      H1241   1.085       .  S
C1226      C1227   1.404       .  A
C1226      H1242   1.082       .  S
C1227      C1237   1.403       .  A
C1227      C1228   1.410       .  A
C1228      C1234   1.412       .  A
C1228      C1229   1.413       .  A
C1229      C1231   1.411       .  A
C1229      C1230   1.412       .  A
C1230      C1238   1.403       .  A
C1231      C1240   1.403       .  A
C1231      C1232   1.404       .  A
C1232      C1233   1.399       .  A
C1232      H1243   1.083       .  S
C1233      C1234   1.404       .  A
C1233      H1244   1.084       .  S
C1234      C1235   1.404       .  A
C1235      C1236   1.408       .  A
C1235      H1245   1.084       .  S
C1236      C1237   1.408       .  A
C1237      H1246   1.082       .  S
C1238      C1239   1.407       .  A
C1238      H1247   1.085       .  S
C1239      C1240   1.408       .  A
C1240      H1248   1.083       .  S
C1249      C1250   1.401       .  A
C1249      C1254   1.404       .  A
C1249      H1265   1.083       .  S
C1250      C1251   1.404       .  A
C1250      H1266   1.084       .  S
C1251      C1261   1.405       .  A
C1251      C1252   1.411       .  A
C1252      C1258   1.412       .  A
C1252      C1253   1.413       .  A
C1253      C1255   1.410       .  A
C1253      C1254   1.412       .  A
C1254      C1262   1.406       .  A
C1255      C1264   1.401       .  A
C1255      C1256   1.403       .  A
C1256      C1257   1.398       .  A
C1256      H1267   1.083       .  S
C1257      C1258   1.403       .  A
C1257      H1268   1.084       .  S
C1258      C1259   1.403       .  A
C1259      C1260   1.407       .  A
C1259      H1269   1.084       .  S
C1260      C1261   1.409       .  A
C1261      H1270   1.083       .  S
C1262      C1263   1.408       .  A
C1262      H1271   1.084       .  S
C1263      C1264   1.407       .  A
C1264      H1272   1.084       .  S
C1273      C1274   1.399       .  A
C1273      C1278   1.404       .  A
C1273      H1289   1.084       .  S
C1274      C1275   1.404       .  A
C1274      H1290   1.083       .  S
C1275      C1285   1.403       .  A
C1275      C1276   1.411       .  A
C1276      C1282   1.412       .  A
C1276      C1277   1.412       .  A
C1277      C1279   1.411       .  A
C1277      C1278   1.412       .  A
C1278      C1286   1.404       .  A
C1279      C1288   1.401       .  A
C1279      C1280   1.404       .  A
C1280      C1281   1.398       .  A
C1280      H1291   1.083       .  S
C1281      C1282   1.403       .  A
C1281      H1292   1.085       .  S
C1282      C1283   1.402       .  A
C1283      C1284   1.405       .  A
C1283      H1293   1.085       .  S
C1284      C1285   1.408       .  A
C1285      H1294   1.083       .  S
C1286      C1287   1.407       .  A
C1286      H1295   1.085       .  S
C1287      C1288   1.407       .  A
C1288      H1296   1.084       .  S
C1297      C1298   1.400       .  A
C1297      C1302   1.404       .  A
C1297      H1313   1.083       .  S
C1298      C1299   1.404       .  A
C1298      H1314   1.084       .  S
C1299      C1309   1.403       .  A
C1299      C1300   1.411       .  A
C1300      C1306   1.412       .  A
C1300      C1301   1.412       .  A
C1301      C1303   1.411       .  A
C1301      C1302   1.411       .  A
C1302      C1310   1.405       .  A
C1303      C1312   1.402       .  A
C1303      C1304   1.403       .  A
C1304      C1305   1.398       .  A
C1304      H1315   1.084       .  S
C1305      C1306   1.403       .  A
C1305      H1316   1.084       .  S
C1306      C1307   1.402       .  A
C1307      C1308   1.406       .  A
C1307      H1317   1.084       .  S
C1308      C1309   1.408       .  A
C1309      H1318   1.084       .  S
C1310      C1311   1.408       .  A
C1310      H1319   1.084       .  S
C1311      C1312   1.406       .  A
C1312      H1320   1.083       .  S
