geometry optimzed in LAMMPS
_audit_creation_date              2020-11-30 
_audit_creation_method            'lammps2cif' 
_symmetry_space_group_name_H-M    'P1' 
_symmetry_Int_Tables_number       1 
_symmetry_cell_setting            triclinic 
loop_ 
_symmetry_equiv_pos_as_xyz 
  x,y,z 
_cell_length_a                    31.34361446493127 
_cell_length_b                    31.43159017437104 
_cell_length_c                    68.65199219256084 
_cell_angle_alpha                 90.5543036052279 
_cell_angle_beta                  90.4879828070426 
_cell_angle_gamma                 90.16599670282544 
loop_ 
_atom_site_label 
_atom_site_type_symbol 
_atom_site_fract_x 
_atom_site_fract_y 
_atom_site_fract_z 
_atom_site_charge 
In1        In  0.93901180  0.84830951  0.07637357     1.36870
C2          C  0.91653665  0.82252812  0.04084543     0.76940
O3          O  0.87384865  0.87769251  0.07919649    -0.61510
O4          O  0.92941958  0.91631203  0.08320946    -0.52420
C5          C  0.93513090  0.82080832  0.11246827     0.69610
O6          O  0.91348243  0.80293582  0.09898959    -0.47270
C7          C  0.02200828  0.85337461  0.07064042     0.74310
O8          O  0.92113645  0.79597015  0.05449022    -0.59130
O9          O  0.99703566  0.88429785  0.06823930    -0.49230
O10         O  0.92208476  0.86076723  0.04582990    -0.55570
C11         C  0.88924252  0.91406265  0.08295792     0.84490
O12         O  0.95872818  0.85079331  0.10712514    -0.57460
O13         O  0.00434466  0.81888342  0.07539584    -0.60750
In14       In  0.93800040  0.85065000  0.92409714     1.36870
C15         C  0.91627343  0.82392765  0.95914602     0.76940
O16         O  0.00317789  0.82213164  0.92910849    -0.61510
O17         O  0.99682674  0.88904373  0.92494677    -0.52420
C18         C  0.93706578  0.82601475  0.88716660     0.69610
O19         O  0.91651695  0.80539533  0.89984739    -0.47270
C20         C  0.88360254  0.91381496  0.92153797     0.74310
O21         O  0.91864825  0.79794615  0.94494453    -0.59130
O22         O  0.92236663  0.91886295  0.92602636    -0.49230
O23         O  0.92578490  0.86174785  0.95519344    -0.55570
C24         C  0.02138425  0.85780743  0.92728579     0.84490
O25         O  0.95689399  0.85804250  0.89356212    -0.57460
O26         O  0.87205535  0.87589518  0.91815615    -0.60750
In27       In  0.26497310  0.95181236  0.07164823     1.36870
C28         C  0.30075154  0.93279983  0.03777591     0.76940
O29         O  0.22957876  0.88929464  0.07211018    -0.61510
O30         O  0.19631635  0.94598852  0.06457454    -0.52420
C31         C  0.28295951  0.94056570  0.10900004     0.69610
O32         O  0.31205024  0.94060777  0.09630864    -0.47270
C33         C  0.26540874  0.03566456  0.07256802     0.74310
O34         O  0.31238934  0.91432793  0.05322840    -0.59130
O35         O  0.23194639  0.01395638  0.07004079    -0.49230
O36         O  0.27282642  0.96087211  0.04003696    -0.55570
C37         C  0.19469424  0.90637456  0.06719954     0.84490
O38         O  0.24571399  0.94504087  0.10239015    -0.57460
O39         O  0.29919635  0.01458633  0.07499213    -0.60750
In40       In  0.26292000  0.96103736  0.92508825     1.36870
C41         C  0.30281634  0.93995679  0.95781774     0.76940
O42         O  0.29183244  0.02528935  0.91997526    -0.61510
O43         O  0.23169881  0.02121945  0.93428178    -0.52420
C44         C  0.27839382  0.95900105  0.88715933     0.69610
O45         O  0.30837833  0.95403525  0.89947156    -0.47270
C46         C  0.19300364  0.91400704  0.92597289     0.74310
O47         O  0.30883867  0.91913141  0.94220723    -0.59130
O48         O  0.19269179  0.95409717  0.92620665    -0.49230
O49         O  0.27877834  0.97163624  0.95617337    -0.55570
C50         C  0.26061989  0.04464456  0.92743502     0.84490
O51         O  0.24197948  0.96120935  0.89451821    -0.57460
O52         O  0.22953967  0.89722476  0.92619352    -0.60750
In53       In  0.15831829  0.27024557  0.07116314     1.36870
C54         C  0.17572878  0.30750781  0.03770494     0.76940
O55         O  0.22426068  0.24245743  0.07369708    -0.61510
O56         O  0.17060152  0.20122739  0.06955164    -0.52420
C57         C  0.16090655  0.28645496  0.10914116     0.69610
O58         O  0.18011109  0.31015980  0.09717397    -0.47270
C59         C  0.07497017  0.26671247  0.06571224     0.74310
O60         O  0.17737454  0.32827264  0.05360543    -0.59130
O61         O  0.09939858  0.23547038  0.06299206    -0.49230
O62         O  0.16785934  0.26850442  0.03933881    -0.55570
C63         C  0.21032515  0.20482586  0.07196177     0.84490
O64         O  0.14083756  0.25583627  0.10143081    -0.57460
O65         O  0.09330724  0.30059028  0.07128826    -0.60750
In66       In  0.15524267  0.28320061  0.92125037     1.36870
C67         C  0.16893054  0.31529066  0.95668531     0.76940
O68         O  0.08966166  0.31204747  0.92003341    -0.61510
O69         O  0.09696427  0.24505967  0.91619555    -0.52420
C70         C  0.16836473  0.30897864  0.88510946     0.69610
O71         O  0.16216913  0.33545301  0.89878084    -0.47270
C72         C  0.20251091  0.21447691  0.92458903     0.74310
O73         O  0.19116405  0.32667740  0.94233247    -0.59130
O74         O  0.16235076  0.21368018  0.92550737    -0.49230
O75         O  0.13921953  0.28972570  0.95252823    -0.55570
C76         C  0.07211219  0.27650963  0.91665191     0.84490
O77         O  0.17096390  0.27099374  0.89040718    -0.57460
O78         O  0.21904447  0.25088195  0.92263089    -0.60750
In79       In  0.83514923  0.16626140  0.07764133     1.36870
C80         C  0.81147611  0.17573442  0.04104799     0.76940
O81         O  0.86837699  0.22965945  0.07522793    -0.61510
O82         O  0.90394550  0.17240570  0.07180152    -0.52420
C83         C  0.81521664  0.18589050  0.11395697     0.69610
O84         O  0.78687835  0.18633331  0.10060911    -0.47270
C85         C  0.83448212  0.08334206  0.08248154     0.74310
O86         O  0.79207936  0.19588911  0.05442820    -0.59130
O87         O  0.86753147  0.10600337  0.08429988    -0.49230
O88         O  0.83847991  0.14910909  0.04686293    -0.55570
C89         C  0.90398520  0.21254222  0.07172795     0.84490
O90         O  0.85217928  0.17735532  0.10819007    -0.57460
O91         O  0.80065023  0.10322440  0.07828443    -0.60750
In92       In  0.83811370  0.16339019  0.92118390     1.36870
C93         C  0.81961210  0.17803848  0.95798333     0.76940
O94         O  0.79712265  0.10487245  0.91953246    -0.61510
O95         O  0.86480034  0.09933307  0.92391583    -0.52420
C96         C  0.82166823  0.16842660  0.88370021     0.69610
O97         O  0.79580069  0.18400490  0.89608548    -0.47270
C98         C  0.90399531  0.21484088  0.91889308     0.74310
O99         O  0.79501565  0.19162747  0.94457545    -0.59130
O100        O  0.90724935  0.17487038  0.91987964    -0.49230
O101        O  0.85071195  0.15620423  0.95218146    -0.55570
C102        C  0.82917048  0.08091073  0.92177953     0.84490
O103        O  0.85430808  0.15120047  0.89093512    -0.57460
O104        O  0.86641379  0.22921538  0.91989977    -0.60750
In105      In  0.33312075  0.44840786  0.92376867     1.36870
C106        C  0.30414336  0.42456312  0.95796900     0.76940
O107        O  0.36136661  0.38354986  0.91888888    -0.61510
O108        O  0.40153136  0.43553342  0.92761518    -0.52420
C109        C  0.32226987  0.44486580  0.88569289     0.69610
O110        O  0.29645433  0.42607140  0.89696375    -0.47270
C111        C  0.32957929  0.53152651  0.92751865     0.74310
O112        O  0.27998404  0.42300094  0.94302100    -0.59130
O113        O  0.36381290  0.51079513  0.92912153    -0.49230
O114        O  0.34102133  0.43890402  0.95511941    -0.55570
C115        C  0.39847007  0.39649761  0.92324793     0.84490
O116        O  0.35091489  0.46624019  0.89423230    -0.57460
O117        O  0.29620559  0.50951023  0.92472104    -0.60750
In118      In  0.34076447  0.44595308  0.07252707     1.36870
C119        C  0.30739551  0.42269049  0.03842916     0.76940
O120        O  0.30639249  0.50861982  0.07301347    -0.61510
O121        O  0.37269486  0.50711873  0.06643187    -0.52420
C122        C  0.32528649  0.44217682  0.11028267     0.69610
O123        O  0.29856099  0.42820175  0.09778704    -0.47270
C124        C  0.40746305  0.39552695  0.07410338     0.74310
O125        O  0.28630620  0.41861631  0.05396706    -0.59130
O126        O  0.41020182  0.43476982  0.07068456    -0.49230
O127        O  0.34424964  0.43791040  0.04070902    -0.55570
C128        C  0.33974930  0.52923607  0.06903040     0.84490
O129        O  0.35854580  0.45806171  0.10318351    -0.57460
O130        O  0.37007103  0.38122130  0.07621594    -0.60750
In131      In  0.43121696  0.77035141  0.92620252     1.36870
C132        C  0.40915289  0.80942412  0.95891083     0.76940
O133        O  0.36769970  0.73728690  0.92235168    -0.61510
O134        O  0.42116026  0.70239396  0.93291045    -0.52420
C135        C  0.42930705  0.78157792  0.88810664     0.69610
O136        O  0.41336483  0.80869381  0.89974804    -0.47270
C137        C  0.51477098  0.77475637  0.92983894     0.74310
O138        O  0.39800720  0.82435818  0.94257234    -0.59130
O139        O  0.49357713  0.74156066  0.93328768    -0.49230
O140        O  0.43090040  0.77602059  0.95811206    -0.55570
C141        C  0.38218807  0.70225824  0.92829784     0.84490
O142        O  0.44527044  0.74937348  0.89614442    -0.57460
O143        O  0.49316889  0.80650674  0.92449512    -0.60750
In144      In  0.43919905  0.76984548  0.07032644     1.36870
C145        C  0.41532119  0.80840789  0.03788413     0.76940
O146        O  0.50081645  0.80652269  0.07331962    -0.61510
O147        O  0.50252732  0.74010333  0.06664231    -0.52420
C148        C  0.43256781  0.78084583  0.10841652     0.69610
O149        O  0.42063239  0.80930399  0.09659424    -0.47270
C150        C  0.39214644  0.70059554  0.06650550     0.74310
O151        O  0.40309259  0.82194938  0.05433051    -0.59130
O152        O  0.43066127  0.70242575  0.06146127    -0.49230
O153        O  0.44032985  0.77729312  0.03840808    -0.55570
C154        C  0.52311287  0.77379556  0.07019774     0.84490
O155        O  0.44669494  0.74750863  0.10048915    -0.57460
O156        O  0.37703379  0.73470841  0.07336711    -0.60750
In157      In  0.75329636  0.67586813  0.92358818     1.36870
C158        C  0.79400344  0.68884379  0.95727419     0.76940
O159        O  0.72276198  0.74059346  0.92517187    -0.61510
O160        O  0.68439552  0.68513754  0.92869670    -0.52420
C161        C  0.76743627  0.68344379  0.88565923     0.69610
O162        O  0.79718126  0.68800288  0.89814843    -0.47270
C163        C  0.75066497  0.59219084  0.92369578     0.74310
O164        O  0.80338959  0.71065831  0.94248077    -0.59130
O165        O  0.71956646  0.61520717  0.92860809    -0.49230
O166        O  0.76519196  0.66168051  0.95443598    -0.55570
C167        C  0.68606497  0.72511212  0.92782454     0.84490
O168        O  0.73134746  0.67673751  0.89294361    -0.57460
O169        O  0.78353456  0.61203666  0.91825953    -0.60750
In170      In  0.76112413  0.67028955  0.07260436     1.36870
C171        C  0.79431598  0.68519415  0.03783478     0.76940
O172        O  0.79535852  0.60761428  0.07384340    -0.61510
O173        O  0.72736130  0.60842594  0.07117964    -0.52420
C174        C  0.78445497  0.67628619  0.10967203     0.69610
O175        O  0.80782781  0.69121898  0.09639382    -0.47270
C176        C  0.69323650  0.71990201  0.07223874     0.74310
O177        O  0.80907903  0.70328983  0.05300809    -0.59130
O178        O  0.69120048  0.68017139  0.07003837    -0.49230
O179        O  0.76406153  0.65971956  0.04072384    -0.55570
C180        C  0.76085909  0.58664485  0.07314448     0.84490
O181        O  0.74983876  0.66017346  0.10390426    -0.57460
O182        O  0.73034784  0.73501141  0.07413172    -0.60750
In183      In  0.65119382  0.35286756  0.91960759     1.36870
C184        C  0.66555517  0.33587057  0.95662246     0.76940
O185        O  0.71580355  0.38380024  0.92010732    -0.61510
O186        O  0.65942741  0.42202328  0.91789791    -0.52420
C187        C  0.66225496  0.33159794  0.88304004     0.69610
O188        O  0.67359775  0.30647385  0.89652623    -0.47270
C189        C  0.56774451  0.34516256  0.92160284     0.74310
O190        O  0.67764790  0.30976507  0.94352207    -0.59130
O191        O  0.58691374  0.38045545  0.92214165    -0.49230
O192        O  0.64828690  0.36909960  0.95028192    -0.55570
C193        C  0.69958450  0.42059744  0.91924678     0.84490
O194        O  0.64602996  0.36617148  0.88858625    -0.57460
O195        O  0.59121044  0.31287706  0.91941781    -0.60750
In196      In  0.66242898  0.34664657  0.07812343     1.36870
C197        C  0.66925361  0.33201801  0.04042263     0.76940
O198        O  0.59975480  0.31151188  0.07412869    -0.61510
O199        O  0.59942828  0.37665445  0.08287117    -0.52420
C200        C  0.67784748  0.31284396  0.11240727     0.69610
O201        O  0.69199022  0.29525498  0.09707388    -0.47270
C202        C  0.71036917  0.41536613  0.08051078     0.74310
O203        O  0.67953987  0.30335842  0.05247420    -0.59130
O204        O  0.67057361  0.41550529  0.08295653    -0.49230
O205        O  0.65909628  0.36717261  0.04795958    -0.55570
C206        C  0.57803673  0.34367630  0.07888904     0.84490
O207        O  0.65757612  0.34668568  0.10985774    -0.57460
O208        O  0.72659667  0.37931568  0.07700739    -0.60750
In209      In  0.82892634  0.95552809  0.57649519     1.36870
C210        C  0.80976791  0.94830662  0.53891269     0.76940
O211        O  0.79887012  0.02017983  0.57281739    -0.61510
O212        O  0.86326965  0.01540355  0.58288463    -0.52420
C213        C  0.79487451  0.94339706  0.61101329     0.69610
O214        O  0.78198211  0.92189031  0.59636802    -0.47270
C215        C  0.89700055  0.90696193  0.57839270     0.74310
O216        O  0.78166682  0.94105326  0.55167062    -0.59130
O217        O  0.89843433  0.94665757  0.57628084    -0.49230
O218        O  0.84644057  0.95595191  0.54561211    -0.55570
C219        C  0.83238251  0.03922098  0.57854112     0.84490
O220        O  0.82352652  0.97015705  0.60762827    -0.57460
O221        O  0.86008588  0.89126567  0.58010065    -0.60750
In222      In  0.83550132  0.94738534  0.41812915     1.36870
C223        C  0.81291314  0.94615358  0.45534736     0.76940
O224        O  0.86125505  0.88049927  0.42132048    -0.61510
O225        O  0.90364843  0.93157639  0.41508323    -0.52420
C226        C  0.79983201  0.93743499  0.38334653     0.69610
O227        O  0.77776887  0.93321900  0.39858022    -0.47270
C228        C  0.84639448  0.02977228  0.41359002     0.74310
O229        O  0.79210419  0.92530174  0.44253276    -0.59130
O230        O  0.87673180  0.00362098  0.41453450    -0.49230
O231        O  0.84414268  0.96662301  0.44878333    -0.55570
C232        C  0.89903963  0.89245004  0.41807801     0.84490
O233        O  0.83901889  0.94298032  0.38622822    -0.57460
O234        O  0.80973268  0.01405559  0.41615694    -0.60750
In235      In  0.15171959  0.83949403  0.42274085     1.36870
C236        C  0.16803918  0.82035950  0.45943626     0.76940
O237        O  0.21665792  0.87052535  0.42456813    -0.61510
O238        O  0.16202846  0.90847603  0.41833186    -0.52420
C239        C  0.16573281  0.81064828  0.38724579     0.69610
O240        O  0.17454098  0.78803841  0.40192749    -0.47270
C241        C  0.06762792  0.83657884  0.42207739     0.74310
O242        O  0.18003960  0.79591874  0.44575659    -0.59130
O243        O  0.08849170  0.87080837  0.42347951    -0.49230
O244        O  0.14622227  0.85182013  0.45411484    -0.55570
C245        C  0.20188270  0.90691982  0.42087045     0.84490
O246        O  0.15086806  0.84683778  0.39099217    -0.57460
O247        O  0.08970429  0.80305867  0.42143939    -0.60750
In248      In  0.14956124  0.83979032  0.57754305     1.36870
C249        C  0.16630448  0.81428599  0.54165299     0.76940
O250        O  0.08424543  0.80932009  0.57801120    -0.61510
O251        O  0.09000251  0.87687755  0.57956866    -0.52420
C252        C  0.16371397  0.81316666  0.61331593     0.69610
O253        O  0.15555564  0.78707402  0.59962994    -0.47270
C254        C  0.19587944  0.90925183  0.57448119     0.74310
O255        O  0.18490838  0.79682695  0.55592854    -0.59130
O256        O  0.15563440  0.90935486  0.57431415    -0.49230
O257        O  0.13813733  0.84074706  0.54614799    -0.55570
C258        C  0.06573892  0.84491343  0.57857858     0.84490
O259        O  0.16685350  0.85137320  0.60830834    -0.57460
O260        O  0.21310524  0.87332292  0.57694382    -0.60750
In261      In  0.26218595  0.15956634  0.42307555     1.36870
C262        C  0.29760088  0.17691976  0.45723335     0.76940
O263        O  0.23743689  0.22654769  0.42177984    -0.61510
O264        O  0.19398558  0.17515429  0.42654767    -0.52420
C265        C  0.27410257  0.16359646  0.38501508     0.69610
O266        O  0.30384474  0.17341807  0.39695010    -0.47270
C267        C  0.26074301  0.07592496  0.42339152     0.74310
O268        O  0.31653271  0.18636831  0.44159834    -0.59130
O269        O  0.22823790  0.09829358  0.42674213    -0.49230
O270        O  0.26221395  0.15841263  0.45508720    -0.55570
C271        C  0.19928402  0.21451610  0.42401365     0.84490
O272        O  0.23943516  0.15399338  0.39290594    -0.57460
O273        O  0.29489984  0.09628382  0.42060006    -0.60750
In274      In  0.26482288  0.16013281  0.57219897     1.36870
C275        C  0.29758047  0.17946924  0.53794281     0.76940
O276        O  0.29282276  0.09448683  0.57360067    -0.61510
O277        O  0.22960903  0.10230482  0.56262834    -0.52420
C278        C  0.28772883  0.16761294  0.60912040     0.69610
O279        O  0.30756238  0.18750418  0.59598621    -0.47270
C280        C  0.19780360  0.20911965  0.57665595     0.74310
O281        O  0.32132968  0.17394746  0.55270999    -0.59130
O282        O  0.19582659  0.16905725  0.57624213    -0.49230
O283        O  0.25823420  0.17705833  0.54117980    -0.55570
C284        C  0.25919860  0.07705394  0.56711962     0.84490
O285        O  0.25830547  0.14352771  0.60311485    -0.57460
O286        O  0.23447370  0.22489151  0.57422609    -0.60750
In287      In  0.94867717  0.27098871  0.41914269     1.36870
C288        C  0.92740543  0.28876988  0.45549322     0.76940
O289        O  0.88528520  0.23695332  0.41554815    -0.61510
O290        O  0.94301860  0.20195393  0.41404135    -0.52420
C291        C  0.94364065  0.30103918  0.38343121     0.69610
O292        O  0.92235771  0.31810572  0.39705161    -0.47270
C293        C  0.03217011  0.27442391  0.42262451     0.74310
O294        O  0.91989363  0.31517117  0.44204137    -0.59130
O295        O  0.01138228  0.24008805  0.42178400    -0.49230
O296        O  0.94662719  0.25565388  0.45014785    -0.55570
C297        C  0.90287414  0.20119389  0.41322543     0.84490
O298        O  0.96595997  0.26979418  0.38836541    -0.57460
O299        O  0.01009951  0.30805295  0.42243012    -0.60750
In300      In  0.94456655  0.27329262  0.57413190     1.36870
C301        C  0.92722296  0.29416308  0.53776305     0.76940
O302        O  0.01029645  0.30233700  0.57265349    -0.61510
O303        O  0.00347210  0.23643776  0.57886463    -0.52420
C304        C  0.93295109  0.30252356  0.60976905     0.69610
O305        O  0.93818930  0.32795129  0.59578107    -0.47270
C306        C  0.89347214  0.20718544  0.57455602     0.74310
O307        O  0.91345822  0.31665756  0.55176942    -0.59130
O308        O  0.93354350  0.20403997  0.57356486    -0.49230
O309        O  0.95078796  0.26368237  0.54266254    -0.55570
C310        C  0.02827570  0.26749930  0.57650541     0.84490
O311        O  0.93138019  0.26388031  0.60515702    -0.57460
O312        O  0.87891891  0.24469785  0.57479203    -0.60750
In313      In  0.30910007  0.44640423  0.23290507     1.36870
C314        C  0.37166973  0.39527744  0.24528552     0.76940
O315        O  0.27440234  0.39525365  0.24935012    -0.61510
O316        O  0.23841837  0.43371218  0.23018519    -0.52420
C317        C  0.30733527  0.52760385  0.24612106     0.69610
O318        O  0.33786759  0.50291467  0.24962281    -0.47270
C319        C  0.31557268  0.44349296  0.19422087     0.74310
O320        O  0.34581670  0.41314940  0.25677983    -0.59130
O321        O  0.28650275  0.42495736  0.20336283    -0.49230
O322        O  0.36677170  0.40507019  0.22763233    -0.55570
C323        C  0.23927225  0.40142620  0.24084497     0.84490
O324        O  0.27777507  0.51078486  0.23630834    -0.57460
O325        O  0.34174060  0.46389645  0.20486942    -0.60750
In326      In  0.15510723  0.30353300  0.23166480     1.36870
C327        C  0.20512908  0.36955705  0.24054604     0.76940
O328        O  0.08420839  0.29308693  0.22718869    -0.61510
O329        O  0.10431936  0.31769711  0.25440842    -0.52420
C330        C  0.15456198  0.30190321  0.19300761     0.69610
O331        O  0.16751839  0.33375807  0.20271672    -0.47270
C332        C  0.20218772  0.23706542  0.24273046     0.74310
O333        O  0.17149248  0.37352186  0.23051144    -0.59130
O334        O  0.17436237  0.25345398  0.25362116    -0.49230
O335        O  0.21024752  0.33340118  0.24785076    -0.55570
C336        C  0.07345270  0.30592785  0.24377952     0.84490
O337        O  0.14208011  0.27093646  0.20312065    -0.57460
O338        O  0.20344453  0.25235854  0.22590623    -0.60750
In339      In  0.80492494  0.45862677  0.26134740     1.36870
C340        C  0.86977976  0.40750134  0.25265144     0.76940
O341        O  0.75482299  0.40946695  0.26767284    -0.61510
O342        O  0.75707955  0.43375399  0.23892520    -0.52420
C343        C  0.81070509  0.46286593  0.30011537     0.69610
O344        O  0.84302105  0.46305042  0.28939464    -0.47270
C345        C  0.80062874  0.53920506  0.24874536     0.74310
O346        O  0.87453534  0.44073858  0.26281628    -0.59130
O347        O  0.77350687  0.52328083  0.25990485    -0.49230
O348        O  0.83332299  0.40310111  0.24507388    -0.55570
C349        C  0.73992589  0.40794624  0.25055918     0.84490
O350        O  0.77575317  0.46153460  0.29088796    -0.57460
O351        O  0.82893107  0.51355552  0.24323537    -0.60750
In352      In  0.94685153  0.30498503  0.26211473     1.36870
C353        C  0.90310645  0.23487950  0.25180691     0.76940
O354        O  0.96627600  0.28295964  0.29175633    -0.61510
O355        O  0.91792713  0.33019584  0.28964350    -0.52420
C356        C  0.02866320  0.30647334  0.25013100     0.69610
O357        O  0.99774371  0.29833660  0.23887925    -0.47270
C358        C  0.90118079  0.37315663  0.25257504     0.74310
O359        O  0.91095655  0.24441827  0.26931515    -0.59130
O360        O  0.93715042  0.37627817  0.26080013    -0.49230
O361        O  0.92103377  0.25859861  0.23965189    -0.55570
C362        C  0.94098771  0.30773432  0.30056077     0.84490
O363        O  0.01792733  0.31454524  0.26733515    -0.57460
O364        O  0.89138725  0.33613647  0.24710831    -0.60750
In365      In  0.29982765  0.65245197  0.26627210     1.36870
C366        C  0.36232601  0.70167293  0.25309214     0.76940
O367        O  0.26795014  0.70573628  0.24972614    -0.61510
O368        O  0.23200392  0.67325833  0.27081568    -0.52420
C369        C  0.30574274  0.57215557  0.25289478     0.69610
O370        O  0.33313182  0.58851583  0.26422537    -0.47270
C371        C  0.29394033  0.65068517  0.30493231     0.74310
O372        O  0.33961894  0.67839974  0.24201122    -0.59130
O373        O  0.26612032  0.63468933  0.29371141    -0.49230
O374        O  0.35517930  0.69747082  0.27105007    -0.55570
C375        C  0.23415113  0.70402869  0.25935307     0.84490
O376        O  0.27631825  0.59707621  0.24793808    -0.57460
O377        O  0.32583219  0.66616419  0.29635176    -0.60750
In378      In  0.15471488  0.80665006  0.26569000     1.36870
C379        C  0.20146124  0.87009985  0.25149462     0.76940
O380        O  0.17969034  0.83162410  0.29426920    -0.61510
O381        O  0.13762195  0.77917003  0.29479158    -0.52420
C382        C  0.07339125  0.81040836  0.25331319     0.69610
O383        O  0.09856880  0.78125513  0.24843001    -0.47270
C384        C  0.20266629  0.73812444  0.25938667     0.74310
O385        O  0.18577422  0.84088113  0.24082546    -0.59130
O386        O  0.17178425  0.73836133  0.27089369    -0.49230
O387        O  0.19068291  0.86859535  0.26914349    -0.55570
C388        C  0.16138699  0.80409550  0.30445810     0.84490
O389        O  0.09003705  0.83894973  0.26390104    -0.57460
O390        O  0.20698909  0.77163165  0.24974086    -0.60750
In391      In  0.79829284  0.66580527  0.23161634     1.36870
C392        C  0.73292678  0.71330589  0.24374463     0.76940
O393        O  0.83542441  0.71112101  0.25120309    -0.61510
O394        O  0.86795403  0.68018545  0.22819726    -0.52420
C395        C  0.79973558  0.58412005  0.24294112     0.69610
O396        O  0.76872429  0.60841478  0.24623835    -0.47270
C397        C  0.79404385  0.67264027  0.19303912     0.74310
O398        O  0.76119360  0.69924811  0.25519404    -0.59130
O399        O  0.80992540  0.70101822  0.20394638    -0.49230
O400        O  0.73642653  0.70080840  0.22632258    -0.55570
C401        C  0.86891407  0.70844012  0.24127745     0.84490
O402        O  0.83023708  0.60168551  0.23438810    -0.57460
O403        O  0.77910388  0.64102682  0.20196732    -0.60750
In404      In  0.94726322  0.81041213  0.23439800     1.36870
C405        C  0.89993585  0.87465702  0.24707173     0.76940
O406        O  0.97475423  0.82525427  0.20506432    -0.61510
O407        O  0.91167395  0.80125568  0.20618329    -0.52420
C408        C  0.02835694  0.81049585  0.24720271     0.69610
O409        O  0.00464116  0.84256521  0.24865618    -0.47270
C410        C  0.90262313  0.74071166  0.24205495     0.74310
O411        O  0.91289769  0.87226600  0.22974126    -0.59130
O412        O  0.93212231  0.74124440  0.22975754    -0.49230
O413        O  0.91397195  0.84614865  0.25823705    -0.55570
C414        C  0.94241150  0.81218539  0.19567542     0.84490
O415        O  0.01031666  0.77820600  0.23993741    -0.57460
O416        O  0.90021622  0.77367452  0.25254354    -0.60750
In417      In  0.43944850  0.79633862  0.23111201     1.36870
C418        C  0.39204282  0.73363102  0.24550278     0.76940
O419        O  0.38957525  0.83184579  0.24853779    -0.61510
O420        O  0.42438992  0.86515224  0.22709248    -0.52420
C421        C  0.52169891  0.80027399  0.24259373     0.69610
O422        O  0.50023077  0.76648396  0.24271982    -0.47270
C423        C  0.43421971  0.78883268  0.19245093     0.74310
O424        O  0.41207594  0.75979136  0.25631298    -0.59130
O425        O  0.41414000  0.81628797  0.20203194    -0.49230
O426        O  0.39730753  0.73882261  0.22749383    -0.55570
C427        C  0.39374002  0.86542365  0.23881163     0.84490
O428        O  0.50107530  0.83224716  0.23713196    -0.57460
O429        O  0.45723432  0.76462982  0.20263515    -0.60750
In430      In  0.29582180  0.95047742  0.23130870     1.36870
C431        C  0.36182472  0.89932677  0.23853594     0.76940
O432        O  0.32534765  0.00621330  0.24776065    -0.61510
O433        O  0.26583475  0.01581685  0.23392022    -0.52420
C434        C  0.29383835  0.95172065  0.19249729     0.69610
O435        O  0.32730544  0.95864192  0.20229311    -0.47270
C436        C  0.23261974  0.90116195  0.24421119     0.74310
O437        O  0.36248561  0.92792737  0.22588514    -0.59130
O438        O  0.25124118  0.92839291  0.25502454    -0.49230
O439        O  0.32900098  0.89927215  0.24896211    -0.55570
C440        C  0.29608850  0.03196341  0.24362947     0.84490
O441        O  0.26100133  0.94568439  0.20260927    -0.57460
O442        O  0.24509272  0.90056148  0.22680831    -0.60750
In443      In  0.45411887  0.30021350  0.26334097     1.36870
C444        C  0.40312321  0.36348574  0.25177415     0.76940
O445        O  0.40246557  0.26683871  0.24533812    -0.61510
O446        O  0.43195955  0.23305437  0.26818879    -0.52420
C447        C  0.53497388  0.30633379  0.25065767     0.69610
O448        O  0.51759286  0.33497403  0.26071191    -0.47270
C449        C  0.45787333  0.29525208  0.30207038     0.74310
O450        O  0.42700759  0.34338612  0.24014203    -0.59130
O451        O  0.46943977  0.26538339  0.29099710    -0.49230
O452        O  0.40665264  0.35242225  0.26932919    -0.55570
C453        C  0.40276640  0.23386074  0.25558010     0.84490
O454        O  0.51071298  0.27559421  0.24642918    -0.57460
O455        O  0.44611355  0.32835415  0.29327024    -0.60750
In456      In  0.29764054  0.15817431  0.26247664     1.36870
C457        C  0.36835922  0.20216839  0.25522474     0.76940
O458        O  0.32955429  0.09450946  0.25716109    -0.61510
O459        O  0.26564811  0.10135810  0.24785994    -0.52420
C460        C  0.29183775  0.16141394  0.30111444     0.69610
O461        O  0.30955778  0.19013052  0.29143766    -0.47270
C462        C  0.23360129  0.20583274  0.24946335     0.74310
O463        O  0.36719363  0.17224669  0.26726063    -0.59130
O464        O  0.26213681  0.19108040  0.23843873    -0.49230
O465        O  0.33505129  0.20608327  0.24501280    -0.55570
C466        C  0.29715724  0.07702417  0.24964971     0.84490
O467        O  0.27563191  0.13180897  0.29091511    -0.57460
O468        O  0.23640144  0.19433748  0.26697440    -0.60750
In469      In  0.66165288  0.30889998  0.23272633     1.36870
C470        C  0.70808453  0.37574351  0.24448004     0.76940
O471        O  0.71051487  0.27618079  0.25147602    -0.61510
O472        O  0.67319608  0.23843883  0.23203462    -0.52420
C473        C  0.57996085  0.30787505  0.24462411     0.69610
O474        O  0.60263141  0.34103037  0.24531258    -0.47270
C475        C  0.67021617  0.30351813  0.19421790     0.74310
O476        O  0.69436765  0.34792939  0.25605369    -0.59130
O477        O  0.70005962  0.29549933  0.20592955    -0.49230
O478        O  0.69494227  0.37152983  0.22711490    -0.55570
C479        C  0.70478691  0.24048086  0.24340987     0.84490
O480        O  0.59916288  0.27557358  0.23837858    -0.57460
O481        O  0.63670938  0.31728726  0.20214315    -0.60750
In482      In  0.80254596  0.15754212  0.23486997     1.36870
C483        C  0.87137820  0.20258959  0.24595035     0.76940
O484        O  0.83324473  0.15625920  0.20563640    -0.61510
O485        O  0.76707687  0.17070679  0.20692857    -0.52420
C486        C  0.80100827  0.07559163  0.24588472     0.69610
O487        O  0.79789510  0.10611263  0.25773377    -0.47270
C488        C  0.73696841  0.20707423  0.24393732     0.74310
O489        O  0.84875822  0.18261242  0.25793912    -0.59130
O490        O  0.73214300  0.17194849  0.23520266    -0.49230
O491        O  0.86119934  0.19633903  0.22840332    -0.55570
C492        C  0.79970816  0.16661797  0.19646360     0.84490
O493        O  0.80564141  0.08672303  0.22853714    -0.57460
O494        O  0.77419213  0.21425510  0.25007150    -0.60750
In495      In  0.64823078  0.80710159  0.26090675     1.36870
C496        C  0.69607978  0.87275702  0.25091992     0.76940
O497        O  0.69878128  0.75826364  0.26723047    -0.61510
O498        O  0.67432085  0.76131180  0.23831861    -0.52420
C499        C  0.64781083  0.81258452  0.29978496     0.69610
O500        O  0.65595410  0.84380395  0.28916877    -0.47270
C501        C  0.56685238  0.80227907  0.24844651     0.74310
O502        O  0.66303126  0.87705318  0.26106555    -0.59130
O503        O  0.58556051  0.77213845  0.25677029    -0.49230
O504        O  0.70125475  0.83619770  0.24366337    -0.55570
C505        C  0.70052141  0.74429188  0.24997640     0.84490
O506        O  0.63904941  0.77886654  0.29047093    -0.57460
O507        O  0.59001566  0.83436292  0.24575040    -0.60750
In508      In  0.79760573  0.94917492  0.26284586     1.36870
C509        C  0.86734439  0.90515683  0.25326991     0.76940
O510        O  0.81820693  0.96514743  0.29340464    -0.61510
O511        O  0.76446717  0.92441896  0.28935036    -0.52420
C512        C  0.79936808  0.03083454  0.25178522     0.69610
O513        O  0.79533572  0.00041655  0.23984698    -0.47270
C514        C  0.73014092  0.90452074  0.25113790     0.74310
O515        O  0.84938430  0.93040020  0.24171196    -0.59130
O516        O  0.72649990  0.94017768  0.25953544    -0.49230
O517        O  0.85203806  0.90516619  0.27012650    -0.55570
C518        C  0.78909874  0.94328212  0.30117872     0.84490
O519        O  0.80193237  0.01969166  0.26926622    -0.57460
O520        O  0.76755837  0.89488105  0.24637913    -0.60750
In521      In  0.29859855  0.65784522  0.73360260     1.36870
C522        C  0.23191518  0.70917692  0.73899076     0.76940
O523        O  0.26954471  0.59924314  0.74700758    -0.61510
O524        O  0.33428998  0.59636798  0.73886811    -0.52420
C525        C  0.29972148  0.65513901  0.69493362     0.69610
O526        O  0.27107632  0.63715130  0.70471777    -0.47270
C527        C  0.36045442  0.70881163  0.74685735     0.74310
O528        O  0.23708261  0.68652290  0.72408416    -0.59130
O529        O  0.33568157  0.68929449  0.75816755    -0.49230
O530        O  0.25903173  0.70327332  0.75231798    -0.55570
C531        C  0.30262417  0.57693975  0.74559159     0.84490
O532        O  0.32903414  0.67187471  0.70510014    -0.57460
O533        O  0.35508860  0.70032827  0.72903663    -0.60750
In534      In  0.14914597  0.81014665  0.73464333     1.36870
C535        C  0.20019148  0.87314200  0.74734737     0.76940
O536        O  0.19534310  0.76988487  0.75261837    -0.61510
O537        O  0.17578548  0.74809759  0.72471184    -0.52420
C538        C  0.06801077  0.81279224  0.74733798     0.69610
O539        O  0.08606332  0.84414188  0.73964797    -0.47270
C540        C  0.14856072  0.80859170  0.69590585     0.74310
O541        O  0.18755970  0.84361381  0.75828711    -0.59130
O542        O  0.12751834  0.78256424  0.70587926    -0.49230
O543        O  0.18446016  0.87204363  0.73039394    -0.55570
C544        C  0.19944421  0.74248148  0.73924886     0.84490
O545        O  0.09188336  0.78112576  0.74949112    -0.57460
O546        O  0.16788285  0.83670221  0.70583693    -0.60750
In547      In  0.79416810  0.66335776  0.76330647     1.36870
C548        C  0.72864593  0.71001004  0.75045466     0.76940
O549        O  0.76432264  0.64350704  0.79158857    -0.61510
O550        O  0.80989123  0.69336986  0.79230204    -0.52420
C551        C  0.79803969  0.58140194  0.75126085     0.69610
O552        O  0.76873528  0.60629591  0.74621811    -0.47270
C553        C  0.86343319  0.70938450  0.75527136     0.74310
O554        O  0.73286731  0.69930276  0.76799842    -0.59130
O555        O  0.86391028  0.67908812  0.76711234    -0.49230
O556        O  0.75658124  0.69491803  0.73918262    -0.55570
C557        C  0.78456712  0.67059165  0.80179594     0.84490
O558        O  0.82591258  0.59840220  0.76205281    -0.57460
O559        O  0.82923487  0.71273107  0.74566816    -0.60750
In560      In  0.94096106  0.81225477  0.76468700     1.36870
C561        C  0.89232769  0.87580777  0.75185390     0.76940
O562        O  0.89323368  0.77626340  0.74585651    -0.61510
O563        O  0.92651913  0.74256883  0.76780705    -0.52420
C564        C  0.02279425  0.81268581  0.75307178     0.69610
O565        O  0.00023260  0.84571289  0.75361034    -0.47270
C566        C  0.93711254  0.81561208  0.80352036     0.74310
O567        O  0.91207816  0.85108611  0.74048434    -0.59130
O568        O  0.90903445  0.79814294  0.79299972    -0.49230
O569        O  0.89962211  0.86979639  0.76970015    -0.55570
C570        C  0.89650303  0.74251547  0.75550509     0.84490
O571        O  0.00329543  0.77933556  0.75779809    -0.57460
O572        O  0.96711852  0.83232232  0.79408413    -0.60750
In573      In  0.30604667  0.45074167  0.76297524     1.36870
C574        C  0.36854962  0.40141588  0.74957941     0.76940
O575        O  0.33197272  0.47413837  0.79188020    -0.61510
O576        O  0.28715069  0.42371470  0.79173419    -0.52420
C577        C  0.30391714  0.53195475  0.75119322     0.69610
O578        O  0.27095404  0.51109846  0.75524132    -0.47270
C579        C  0.23674425  0.40555984  0.75486686     0.74310
O580        O  0.34297099  0.42054284  0.73838567    -0.59130
O581        O  0.23685238  0.43646105  0.76667851    -0.49230
O582        O  0.36357305  0.40932001  0.76745521    -0.55570
C583        C  0.30987049  0.44869690  0.80174510     0.84490
O584        O  0.33793127  0.51100501  0.75238315    -0.57460
O585        O  0.27041361  0.40128864  0.74513203    -0.60750
In586      In  0.15326099  0.30693075  0.76308077     1.36870
C587        C  0.20321084  0.37324015  0.75520485     0.76940
O588        O  0.20004402  0.25423694  0.76824671    -0.61510
O589        O  0.17786792  0.26324643  0.73923847    -0.52420
C590        C  0.15639347  0.31077149  0.80191291     0.69610
O591        O  0.14141485  0.34043872  0.79176529    -0.47270
C592        C  0.07196474  0.30328651  0.75056771     0.74310
O593        O  0.17399384  0.37458390  0.76757068    -0.59130
O594        O  0.08874098  0.27395798  0.76032533    -0.49230
O595        O  0.20448856  0.33936463  0.74532855    -0.55570
C596        C  0.20229728  0.24302967  0.75061388     0.84490
O597        O  0.16637912  0.27806884  0.79226334    -0.57460
O598        O  0.09686947  0.33337390  0.74673722    -0.60750
In599      In  0.80315914  0.45516881  0.73211121     1.36870
C600        C  0.74084641  0.40226277  0.74302040     0.76940
O601        O  0.77023164  0.46104228  0.70324010    -0.61510
O602        O  0.83728251  0.45333454  0.70331926    -0.52420
C603        C  0.79954147  0.53644433  0.74500426     0.69610
O604        O  0.82804520  0.51094159  0.75041492    -0.47270
C605        C  0.87052227  0.40728500  0.74016270     0.74310
O606        O  0.75838901  0.42847297  0.75466857    -0.59130
O607        O  0.87206741  0.43809974  0.72858789    -0.49230
O608        O  0.75404707  0.40418486  0.72578612    -0.55570
C609        C  0.80371923  0.45721005  0.69330949     0.84490
O610        O  0.77237096  0.52021878  0.73361785    -0.57460
O611        O  0.83611183  0.40396301  0.74938602    -0.60750
In612      In  0.94632026  0.30412315  0.73111733     1.36870
C613        C  0.89849652  0.23944402  0.74277107     0.76940
O614        O  0.89895668  0.34003019  0.74958708    -0.61510
O615        O  0.93292745  0.37380236  0.72809475    -0.52420
C616        C  0.02709562  0.30314107  0.74420863     0.69610
O617        O  0.00427793  0.27012512  0.74344049    -0.47270
C618        C  0.94217390  0.30529272  0.69246653     0.74310
O619        O  0.91550958  0.26576565  0.75450736    -0.59130
O620        O  0.91091538  0.31358177  0.70318861    -0.49230
O621        O  0.90851710  0.24421455  0.72516201    -0.55570
C622        C  0.90285955  0.37386303  0.74009377     0.84490
O623        O  0.00837566  0.33645579  0.73888873    -0.57460
O624        O  0.97517941  0.29328018  0.70150320    -0.60750
In625      In  0.44923129  0.30607711  0.73062982     1.36870
C626        C  0.39957700  0.36995007  0.74257600     0.76940
O627        O  0.47646290  0.32795192  0.70221395    -0.61510
O628        O  0.42791130  0.28136206  0.70124089    -0.52420
C629        C  0.53017110  0.30708453  0.74357246     0.69610
O630        O  0.51131499  0.33968088  0.73753786    -0.47270
C631        C  0.40258734  0.23855592  0.73956135     0.74310
O632        O  0.42327906  0.34930859  0.75400071    -0.59130
O633        O  0.43315834  0.23668101  0.72777254    -0.49230
O634        O  0.40270735  0.35938178  0.72487985    -0.55570
C635        C  0.45453179  0.30272885  0.69182696     0.84490
O636        O  0.50719866  0.27414883  0.74390357    -0.57460
O637        O  0.39961033  0.27326264  0.74880483    -0.60750
In638      In  0.29767765  0.16291144  0.73133267     1.36870
C639        C  0.36869978  0.20636300  0.73959659     0.76940
O640        O  0.23720918  0.20045329  0.72625568    -0.61510
O641        O  0.26079930  0.19513360  0.75523222    -0.52420
C642        C  0.29581322  0.16512294  0.69256176     0.69610
O643        O  0.30480335  0.19701952  0.70301971    -0.47270
C644        C  0.29634436  0.08238264  0.74430107     0.74310
O645        O  0.36743705  0.17658881  0.72723264    -0.59130
O646        O  0.26338447  0.10508543  0.74321479    -0.49230
O647        O  0.33545136  0.21019793  0.74961805    -0.55570
C648        C  0.23354109  0.21137029  0.74389047     0.84490
O649        O  0.28518968  0.13253672  0.70197105    -0.57460
O650        O  0.33005613  0.10110956  0.73938278    -0.60750
In651      In  0.44084757  0.80512985  0.76566982     1.36550
C652        C  0.39480085  0.87383661  0.75695028     0.76940
O653        O  0.50622881  0.83579350  0.76275019    -0.61510
O654        O  0.49626164  0.77623064  0.74912193    -0.52420
C655        C  0.44053331  0.79731507  0.80433065     0.69610
O656        O  0.41823406  0.82401154  0.79531268    -0.47270
C657        C  0.39119253  0.74110040  0.75363220     0.74310
O658        O  0.42667882  0.87514034  0.76819285    -0.59130
O659        O  0.41186027  0.76414588  0.74201854    -0.49230
O660        O  0.38971404  0.83889067  0.74814109    -0.55570
C661        C  0.52203599  0.80591979  0.75291710     0.84490
O662        O  0.46286971  0.77393457  0.79340865    -0.57460
O663        O  0.39717138  0.74968556  0.77142185    -0.60750
In664      In  0.29596265  0.95748834  0.76439446     1.36870
C665        C  0.23263993  0.90470324  0.75348289     0.76940
O666        O  0.32830961  0.90506667  0.74710506    -0.61510
O667        O  0.36420238  0.93821981  0.76875703    -0.52420
C668        C  0.29565841  0.03780912  0.75079827     0.69610
O669        O  0.26433827  0.02144698  0.75925365    -0.47270
C670        C  0.29481510  0.96273759  0.80322439     0.74310
O671        O  0.24851823  0.93174024  0.74206160    -0.59130
O672        O  0.32861760  0.95886691  0.79368375    -0.49230
O673        O  0.24851346  0.90533169  0.77040358    -0.55570
C674        C  0.36250866  0.90752260  0.75687028     0.84490
O675        O  0.32649838  0.01280320  0.74853385    -0.57460
O676        O  0.26174768  0.96609099  0.79276345    -0.60750
In677      In  0.65769273  0.30839172  0.76123672     1.36870
C678        C  0.70945585  0.37033441  0.74920759     0.76940
O679        O  0.64584356  0.34218597  0.78973520    -0.61510
O680        O  0.67571683  0.28189559  0.79044240    -0.52420
C681        C  0.57536339  0.30751287  0.74945819     0.69610
O682        O  0.59766446  0.34075144  0.75005171    -0.47270
C683        C  0.70309687  0.23988986  0.75226844     0.74310
O684        O  0.69089280  0.34493163  0.73747647    -0.59130
O685        O  0.67318087  0.23952285  0.76437248    -0.49230
O686        O  0.70052345  0.36481459  0.76685411    -0.55570
C687        C  0.66259576  0.31347433  0.79994189     0.84490
O688        O  0.59524181  0.27462780  0.75421916    -0.57460
O689        O  0.70683600  0.27404832  0.74293475    -0.60750
In690      In  0.80263262  0.15948842  0.76100721     1.36870
C691        C  0.86677912  0.20816219  0.74907854     0.76940
O692        O  0.76953724  0.20908482  0.74265326    -0.61510
O693        O  0.73365768  0.17581139  0.76375606    -0.52420
C694        C  0.79922215  0.07778417  0.74916937     0.69610
O695        O  0.83312937  0.09924413  0.74929026    -0.47270
C696        C  0.80882842  0.16292802  0.79970203     0.74310
O697        O  0.84415479  0.18638839  0.73732511    -0.59130
O698        O  0.78260807  0.18473164  0.79017072    -0.49230
O699        O  0.85784672  0.20341603  0.76677554    -0.55570
C700        C  0.73523584  0.20626643  0.75201117     0.84490
O701        O  0.76685535  0.09831803  0.75437297    -0.57460
O702        O  0.83143619  0.13842918  0.78944197    -0.60750
In703      In  0.64707213  0.80633723  0.73331760     1.36870
C704        C  0.69616288  0.74072736  0.74406575     0.76940
O705        O  0.61670997  0.79584602  0.70370162    -0.61510
O706        O  0.67702026  0.82601905  0.70526090    -0.52420
C707        C  0.56670647  0.80565685  0.74640756     0.69610
O708        O  0.59278226  0.83507564  0.75050702    -0.47270
C709        C  0.69116405  0.87534733  0.74272190     0.74310
O710        O  0.67243261  0.76042035  0.75580725    -0.59130
O711        O  0.65918958  0.87642389  0.73147757    -0.49230
O712        O  0.69217158  0.75212486  0.72663505    -0.55570
C713        C  0.64654144  0.81367655  0.69460721     0.84490
O714        O  0.58200748  0.77600749  0.73617565    -0.57460
O715        O  0.69651581  0.84063935  0.75145317    -0.60750
In716      In  0.79346291  0.95095631  0.73226538     1.36870
C717        C  0.86028137  0.90633922  0.74494647     0.76940
O718        O  0.75918437  0.90432496  0.75131333    -0.61510
O719        O  0.72321057  0.93779128  0.73012297    -0.52420
C720        C  0.79752706  0.03254916  0.74356394     0.69610
O721        O  0.82901926  0.01297624  0.73659291    -0.47270
C722        C  0.78794935  0.94324913  0.69355839     0.74310
O723        O  0.83561667  0.92594468  0.75634202    -0.59130
O724        O  0.78556942  0.91205909  0.70482685    -0.49230
O725        O  0.85284418  0.91228962  0.72711643    -0.55570
C726        C  0.72429828  0.90808039  0.74227769     0.84490
O727        O  0.76439080  0.01016946  0.74533026    -0.57460
O728        O  0.79385811  0.97849732  0.70211366    -0.60750
In729      In  0.46424644  0.32798499  0.57121560     1.36870
C730        C  0.44501347  0.28985018  0.53753741     0.76940
O731        O  0.39796038  0.35428308  0.57466275    -0.61510
O732        O  0.45153250  0.39620334  0.57654922    -0.52420
C733        C  0.46428889  0.30204932  0.60799458     0.69610
O734        O  0.43896555  0.28618767  0.59541632    -0.47270
C735        C  0.54388713  0.34811556  0.56291647     0.74310
O736        O  0.46360462  0.27012282  0.55112863    -0.59130
O737        O  0.51303445  0.37320755  0.56035303    -0.49230
O738        O  0.43389256  0.32707895  0.54188371    -0.55570
C739        C  0.41156677  0.39184033  0.57714395     0.84490
O740        O  0.49030529  0.32831477  0.60117862    -0.57460
O741        O  0.53370177  0.31184269  0.56914549    -0.60750
In742      In  0.46790979  0.32364084  0.42205502     1.36870
C743        C  0.45500531  0.28618894  0.45629595     0.76940
O744        O  0.53566811  0.30488361  0.41567943    -0.61510
O745        O  0.52240649  0.36668184  0.42736565    -0.52420
C746        C  0.45468908  0.29812923  0.38540673     0.69610
O747        O  0.46278807  0.27126777  0.39855105    -0.47270
C748        C  0.42021107  0.39293063  0.42188997     0.74310
O749        O  0.42769378  0.28401271  0.44268745    -0.59130
O750        O  0.46036959  0.39361245  0.42236764    -0.49230
O751        O  0.48866862  0.30536515  0.45190978    -0.55570
C752        C  0.54987115  0.34083533  0.42111425     0.84490
O753        O  0.45335916  0.33585407  0.39129446    -0.57460
O754        O  0.40374604  0.35638805  0.42347483    -0.60750
In755      In  0.32686194  0.63685529  0.57535789     1.36870
C756        C  0.29232192  0.64833952  0.54032255     0.76940
O757        O  0.36189732  0.69890909  0.57252886    -0.61510
O758        O  0.39675276  0.64068852  0.57231111    -0.52420
C759        C  0.30106761  0.65481269  0.61122331     0.69610
O760        O  0.27601635  0.63841683  0.59873835    -0.47270
C761        C  0.33763605  0.55455324  0.58085618     0.74310
O762        O  0.28195910  0.67148350  0.55466732    -0.59130
O763        O  0.36758406  0.58132093  0.58164163    -0.49230
O764        O  0.31889647  0.61974923  0.54425597    -0.55570
C765        C  0.39788338  0.68083287  0.57238320     0.84490
O766        O  0.33666084  0.66529232  0.60459977    -0.57460
O767        O  0.30131237  0.56971328  0.57699758    -0.60750
In768      In  0.32253894  0.63800793  0.42357452     1.36870
C769        C  0.28941062  0.64712860  0.45899482     0.76940
O770        O  0.30301698  0.56869403  0.42197911    -0.61510
O771        O  0.36819818  0.58573035  0.41879636    -0.52420
C772        C  0.29042233  0.65667003  0.38850940     0.69610
O773        O  0.27426762  0.62820469  0.39898855    -0.47270
C774        C  0.39466002  0.68163998  0.42430422     0.74310
O775        O  0.27681975  0.66976057  0.44498798    -0.59130
O776        O  0.39223613  0.64290687  0.41956441    -0.49230
O777        O  0.31783305  0.62073321  0.45467869    -0.55570
C778        C  0.34089314  0.55627893  0.41941994     0.84490
O779        O  0.31863684  0.67827564  0.39706040    -0.57460
O780        O  0.36014571  0.69790659  0.43013382    -0.60750
In781      In  0.64020447  0.78452883  0.42052480     1.36870
C782        C  0.65011260  0.82012487  0.45547669     0.76940
O783        O  0.57015873  0.79886149  0.42194584    -0.61510
O784        O  0.59044522  0.73421464  0.42172141    -0.52420
C785        C  0.64871952  0.80561233  0.38343366     0.69610
O786        O  0.66128995  0.83099736  0.39678748    -0.47270
C787        C  0.69416123  0.72053194  0.42291070     0.74310
O788        O  0.67882932  0.79861449  0.44742619    -0.59130
O789        O  0.65680317  0.71899546  0.42962733    -0.49230
O790        O  0.62038306  0.83138803  0.44420518    -0.55570
C791        C  0.55973067  0.76005028  0.42215721     0.84490
O792        O  0.63002782  0.77301069  0.38937894    -0.57460
O793        O  0.70451155  0.75544321  0.41523997    -0.60750
In794      In  0.64434249  0.77820887  0.57591785     1.36870
C795        C  0.64595112  0.80359163  0.53913839     0.76940
O796        O  0.71436057  0.76027872  0.57405268    -0.61510
O797        O  0.66703500  0.71232515  0.57782616    -0.52420
C798        C  0.65022085  0.80835927  0.61178868     0.69610
O799        O  0.65197640  0.83326144  0.59740027    -0.47270
C800        C  0.56337585  0.75688582  0.57771732     0.74310
O801        O  0.66196359  0.82680195  0.55254847    -0.59130
O802        O  0.59336023  0.73043384  0.57658532    -0.49230
O803        O  0.63004822  0.76936382  0.54506721    -0.55570
C804        C  0.70596123  0.72130044  0.57640292     0.84490
O805        O  0.64681079  0.76961881  0.60758077    -0.57460
O806        O  0.57457591  0.79556883  0.57739658    -0.60750
In807      In  0.77632635  0.47481749  0.57151596     1.36870
C808        C  0.81323331  0.46297745  0.53721746     0.76940
O809        O  0.74445073  0.41083452  0.56961496    -0.61510
O810        O  0.70790221  0.46639392  0.56377173    -0.52420
C811        C  0.79120094  0.46375164  0.60921987     0.69610
O812        O  0.82146759  0.46196654  0.59707674    -0.47270
C813        C  0.77432217  0.55856565  0.57467386     0.74310
O814        O  0.82312027  0.43987416  0.55159606    -0.59130
O815        O  0.74138363  0.53611850  0.57178260    -0.49230
O816        O  0.78688277  0.49189249  0.54095618    -0.55570
C817        C  0.70844825  0.42644815  0.56541952     0.84490
O818        O  0.75476098  0.46709596  0.60164282    -0.57460
O819        O  0.80890833  0.53821313  0.57606666    -0.60750
In820      In  0.77977057  0.47306867  0.42090577     1.36870
C821        C  0.81480319  0.46183936  0.45592447     0.76940
O822        O  0.80311888  0.54029732  0.41716143    -0.61510
O823        O  0.73762707  0.52947359  0.42355138    -0.52420
C824        C  0.80322098  0.46414350  0.38400418     0.69610
O825        O  0.82964040  0.47733386  0.39672836    -0.47270
C826        C  0.71140805  0.42398760  0.42088332     0.74310
O827        O  0.82752732  0.44046564  0.44136523    -0.59130
O828        O  0.70999040  0.46388372  0.41908716    -0.49230
O829        O  0.78518847  0.48740004  0.45228126    -0.55570
C830        C  0.76680828  0.55606091  0.42027665     0.84490
O831        O  0.76893631  0.45039121  0.39074385    -0.57460
O832        O  0.74826237  0.40891146  0.42396107    -0.60750
C833        C  0.82891313  0.45769415  0.51710726    -0.06760
C834        C  0.83857220  0.49517674  0.50713747    -0.17890
C835        C  0.83977003  0.49601101  0.48684767     0.10430
C836        C  0.83144094  0.45844282  0.47602070    -0.06690
C837        C  0.82706923  0.41979071  0.48593532    -0.17930
C838        C  0.82492616  0.41913975  0.50641363     0.10460
S839        S  0.84758119  0.54705076  0.47553387    -0.32890
S840        S  0.81139919  0.36947116  0.51773085    -0.32900
H841        H  0.77930633  0.38659585  0.52963008     0.28470
H842        H  0.86306922  0.53070060  0.45781156     0.28470
H843        H  0.84189535  0.52488448  0.51517872     0.19060
H844        H  0.82023973  0.39090046  0.47773845     0.19070
C845        C  0.73789675  0.68761779  0.57795008    -0.06760
C846        C  0.75729227  0.67264102  0.56090076    -0.17890
C847        C  0.77424888  0.63143649  0.56000850     0.10430
C848        C  0.77143764  0.60499585  0.57645659    -0.06690
C849        C  0.75603381  0.62175658  0.59397182    -0.17930
C850        C  0.73941530  0.66277055  0.59492269     0.10460
S851        S  0.79426760  0.61262151  0.53695031    -0.32890
S852        S  0.71624131  0.68005471  0.61762705    -0.32900
H853        H  0.72162947  0.72375663  0.61423580     0.28470
H854        H  0.82248016  0.58248317  0.54477357     0.28470
H855        H  0.75570420  0.69147219  0.54776578     0.19060
H856        H  0.75409105  0.60184655  0.60671991     0.19070
C857        C  0.72227564  0.68328241  0.42325092    -0.06760
C858        C  0.73830409  0.66775154  0.40558738    -0.17890
C859        C  0.75651111  0.62728960  0.40431615     0.10430
C860        C  0.75854246  0.60188260  0.42113869    -0.06690
C861        C  0.74587277  0.61892763  0.43911047    -0.17930
C862        C  0.72819081  0.65967522  0.44036714     0.10460
S863        S  0.77205237  0.60870820  0.38050714    -0.32890
S864        S  0.71311374  0.68131665  0.46375557    -0.32900
H865        H  0.72885000  0.64764215  0.47506802     0.28470
H866        H  0.80520531  0.58225298  0.38688538     0.28470
H867        H  0.73432883  0.68606566  0.39246025     0.19060
H868        H  0.74821642  0.59949207  0.45201915     0.19070
C869        C  0.64584002  0.82013552  0.47683042    -0.06760
C870        C  0.65624792  0.85542038  0.48867757    -0.17890
C871        C  0.65585044  0.85220147  0.50920426     0.10430
C872        C  0.64579540  0.81265135  0.51789581    -0.06690
C873        C  0.63444371  0.77829127  0.50570703    -0.17930
C874        C  0.63346648  0.78184520  0.48565184     0.10460
S875        S  0.66766485  0.89934683  0.52330365    -0.32890
S876        S  0.61523175  0.73591127  0.47206079    -0.32900
H877        H  0.58730090  0.75977738  0.46049367     0.28470
H878        H  0.63384261  0.89321233  0.53633372     0.28470
H879        H  0.66480397  0.88528063  0.48199892     0.19060
H880        H  0.62585063  0.74776920  0.51176975     0.19070
C881        C  0.51537174  0.74507371  0.42200333    -0.06760
C882        C  0.50389654  0.71531705  0.40760467    -0.17890
C883        C  0.46367826  0.69640858  0.40737534     0.10430
C884        C  0.43475019  0.70565414  0.42251707    -0.06690
C885        C  0.44555682  0.73661701  0.43658558    -0.17930
C886        C  0.48547083  0.75682338  0.43634389     0.10460
S887        S  0.45097921  0.66167630  0.38703896    -0.32890
S888        S  0.49787325  0.79406935  0.45566262    -0.32900
H889        H  0.51240727  0.82591876  0.44310879     0.28470
H890        H  0.40820531  0.67479676  0.38542159     0.28470
H891        H  0.52647002  0.70692835  0.39632710     0.19060
H892        H  0.42340379  0.74411085  0.44814770     0.19070
C893        C  0.43859592  0.70383196  0.57416425    -0.06760
C894        C  0.46951379  0.68585970  0.58640901    -0.17890
C895        C  0.50906238  0.70510495  0.58923090     0.10430
C896        C  0.51898602  0.74242139  0.57895841    -0.06690
C897        C  0.48739143  0.76203058  0.56757942    -0.17930
C898        C  0.44714845  0.74301657  0.56504653     0.10460
S899        S  0.54529935  0.68076383  0.60638701    -0.32890
S900        S  0.40946299  0.76863159  0.54907211    -0.32900
H901        H  0.39326108  0.73069225  0.54082449     0.28470
H902        H  0.56461504  0.71914275  0.61253973     0.28470
H903        H  0.46255596  0.65677652  0.59415072     0.19060
H904        H  0.49490410  0.79076064  0.55969511     0.19070
C905        C  0.27612936  0.65290827  0.52020480    -0.06760
C906        C  0.26639007  0.61513072  0.51009025    -0.17890
C907        C  0.26498116  0.61376436  0.48979455     0.10430
C908        C  0.27416001  0.65082649  0.47917530    -0.06690
C909        C  0.27912569  0.68970559  0.48920169    -0.17930
C910        C  0.27991773  0.69115886  0.50967774     0.10460
S911        S  0.25481867  0.56290567  0.47825439    -0.32890
S912        S  0.29204958  0.74126480  0.52138284    -0.32900
H913        H  0.26117553  0.73639114  0.53593527     0.28470
H914        H  0.23955912  0.57944387  0.46055373     0.28470
H915        H  0.26280665  0.58571421  0.51804660     0.19060
H916        H  0.28624914  0.71830741  0.48114933     0.19070
C917        C  0.59422968  0.35425972  0.41894356    -0.06760
C918        C  0.60130584  0.38719437  0.40585191    -0.17890
C919        C  0.64020713  0.40842183  0.40542329     0.10430
C920        C  0.67275224  0.39755184  0.41883346    -0.06690
C921        C  0.66664880  0.36281332  0.43122132    -0.17930
C922        C  0.62757689  0.34089557  0.43138413     0.10460
S923        S  0.64624580  0.44888314  0.38728311    -0.32890
S924        S  0.62097443  0.29928663  0.44898145    -0.32900
H925        H  0.59153885  0.27514121  0.43799185     0.28470
H926        H  0.68775793  0.43592130  0.38252392     0.28470
H927        H  0.57578315  0.39722026  0.39617322     0.19060
H928        H  0.69158510  0.35403352  0.44143169     0.19070
C929        C  0.35410831  0.51143058  0.41739576    -0.06760
C930        C  0.39051153  0.50360409  0.40623380    -0.17890
C931        C  0.41069208  0.46428115  0.40648404     0.10430
C932        C  0.39531836  0.43197419  0.41877538    -0.06690
C933        C  0.35700616  0.43837698  0.42878820    -0.17930
C934        C  0.33589017  0.47766152  0.42801119     0.10460
S935        S  0.45581551  0.45745639  0.39063949    -0.32890
S936        S  0.28820935  0.48369651  0.44211190    -0.32900
H937        H  0.26429337  0.49991667  0.42644080     0.28470
H938        H  0.44427998  0.41594472  0.38491768     0.28470
H939        H  0.40398085  0.52874882  0.39747508     0.19060
H940        H  0.34440166  0.41333975  0.43784777     0.19070
C941        C  0.58853977  0.36160989  0.56039753    -0.06760
C942        C  0.61920008  0.34706770  0.57377351    -0.17890
C943        C  0.65923710  0.36666707  0.57539869     0.10430
C944        C  0.66931455  0.40085222  0.56301197    -0.06690
C945        C  0.63974738  0.41319803  0.54871414    -0.17930
C946        C  0.59984351  0.39356684  0.54708286     0.10460
S947        S  0.69395029  0.34959165  0.59486496    -0.32890
S948        S  0.56480694  0.41069927  0.52773958    -0.32900
H949        H  0.54489424  0.37085653  0.52501455     0.28470
H950        H  0.70419233  0.39103688  0.60129806     0.28470
H951        H  0.61076616  0.32262956  0.58410219     0.19060
H952        H  0.64761915  0.43873059  0.53886147     0.19070
C953        C  0.38384338  0.42863200  0.58043189    -0.06760
C954        C  0.39425613  0.45582976  0.59604319    -0.17890
C955        C  0.37514148  0.49560759  0.59789388     0.10430
C956        C  0.34595628  0.50907870  0.58350771    -0.06690
C957        C  0.33207954  0.48024686  0.56905911    -0.17930
C958        C  0.35106849  0.44010826  0.56726627     0.10460
S959        S  0.39049777  0.52860117  0.61845594    -0.32890
S960        S  0.33559480  0.40722165  0.54673356    -0.32900
H961        H  0.37735674  0.39535307  0.54178412     0.28470
H962        H  0.35253382  0.55240139  0.61892932     0.28470
H963        H  0.41861555  0.44662756  0.60647562     0.19060
H964        H  0.30952608  0.49048328  0.55801731     0.19070
C965        C  0.44083425  0.27368468  0.51735396    -0.06760
C966        C  0.47758962  0.25747596  0.50851691    -0.17890
C967        C  0.48155372  0.25683066  0.48821556     0.10430
C968        C  0.44761348  0.27170312  0.47640693    -0.06690
C969        C  0.40886394  0.28257664  0.48520704    -0.17930
C970        C  0.40536590  0.28432466  0.50553644     0.10460
S971        S  0.53204393  0.24013972  0.47834937    -0.32890
S972        S  0.35645608  0.30459531  0.51558171    -0.32900
H973        H  0.36013194  0.28284408  0.53333814     0.28470
H974        H  0.51545644  0.22682997  0.46017694     0.28470
H975        H  0.50502995  0.24932903  0.51743360     0.19060
H976        H  0.38258000  0.29391211  0.47632611     0.19070
C977        C  0.64682309  0.81925530  0.67325294    -0.06760
C978        C  0.68635627  0.81858628  0.66373317    -0.17890
C979        C  0.68864839  0.81908966  0.64340271     0.10430
C980        C  0.65085787  0.82167593  0.63226143    -0.06690
C981        C  0.61151735  0.82458628  0.64171511    -0.17930
C982        C  0.60905187  0.82367626  0.66204873     0.10460
S983        S  0.74005634  0.81129643  0.63240379    -0.32890
S984        S  0.55680672  0.82743388  0.67268029    -0.32900
H985        H  0.57002152  0.85368982  0.68833106     0.28470
H986        H  0.73062097  0.83332312  0.61517123     0.28470
H987        H  0.71559178  0.81526648  0.67211924     0.19060
H988        H  0.58230653  0.82529054  0.63315176     0.19070
C989        C  0.45940677  0.29808715  0.67046281    -0.06760
C990        C  0.42556462  0.28052455  0.65941352    -0.17890
C991        C  0.42747947  0.27764503  0.63904009     0.10430
C992        C  0.46340132  0.29396527  0.62927135    -0.06690
C993        C  0.49818320  0.30902460  0.64046707    -0.17930
C994        C  0.49697074  0.31048056  0.66077864     0.10460
S995        S  0.38241803  0.25463206  0.62644320    -0.32890
S996        S  0.54484201  0.32776207  0.67331512    -0.32900
H997        H  0.54306340  0.29556936  0.68740411     0.28470
H998        H  0.40754358  0.22692063  0.61516208     0.28470
H999        H  0.39703006  0.26954679  0.66664754     0.19060
H1000       H  0.52664414  0.32046435  0.63332568     0.19070
C1001       C  0.80298156  0.45835967  0.67176470    -0.06760
C1002       C  0.77012874  0.48145210  0.66298223    -0.17890
C1003       C  0.76713812  0.48519415  0.64284252     0.10430
C1004       C  0.79668992  0.46380258  0.63069394    -0.06690
C1005       C  0.83031874  0.44126952  0.63940493    -0.17930
C1006       C  0.83369011  0.43819642  0.65979109     0.10460
S1007       S  0.72603770  0.52007155  0.63384884    -0.32890
S1008       S  0.87664856  0.40675468  0.66951219    -0.32900
H1009       H  0.85111777  0.38578283  0.68320974     0.28470
H1010       H  0.75182579  0.53680772  0.61919373     0.28470
H1011       H  0.74706884  0.49800024  0.67194751     0.19060
H1012       H  0.85322549  0.42484680  0.63032111     0.19070
C1013       C  0.29795309  0.65740768  0.67341970    -0.06760
C1014       C  0.27181811  0.62836015  0.66313077    -0.17890
C1015       C  0.26888334  0.62891007  0.64276398     0.10430
C1016       C  0.29260495  0.65919876  0.63228119    -0.06690
C1017       C  0.31671425  0.68970571  0.64265188    -0.17930
C1018       C  0.31998957  0.68898519  0.66291518     0.10460
S1019       S  0.23731808  0.58800737  0.63105613    -0.32890
S1020       S  0.35274307  0.72945276  0.67431413    -0.32900
H1021       H  0.38308055  0.69982602  0.68090054     0.28470
H1022       H  0.21442025  0.61698082  0.61952213     0.28470
H1023       H  0.25421004  0.60435161  0.67096792     0.19060
H1024       H  0.33497361  0.71326202  0.63481683     0.19070
C1025       C  0.65037347  0.81410444  0.32129632    -0.06760
C1026       C  0.66170561  0.77642656  0.33063619    -0.17890
C1027       C  0.66524710  0.77459306  0.35079564     0.10430
C1028       C  0.65569027  0.81076709  0.36234634    -0.06690
C1029       C  0.64647230  0.84931974  0.35313726    -0.17930
C1030       C  0.64360479  0.85136189  0.33269509     0.10460
S1031       S  0.68308187  0.72501491  0.36093782    -0.32890
S1032       S  0.62843778  0.90146369  0.32223711    -0.32900
H1033       H  0.59934960  0.88339571  0.30877822     0.28470
H1034       H  0.70703317  0.74500767  0.37583032     0.28470
H1035       H  0.66864586  0.74808511  0.32212651     0.19060
H1036       H  0.63897445  0.87717541  0.36185716     0.19070
C1037       C  0.45581279  0.29141899  0.32351318    -0.06760
C1038       C  0.42397748  0.31442647  0.33315966    -0.17890
C1039       C  0.41984728  0.31284739  0.35334436     0.10430
C1040       C  0.44889465  0.28861910  0.36448729    -0.06690
C1041       C  0.47906873  0.26335521  0.35487144    -0.17930
C1042       C  0.48304762  0.26470482  0.33451692     0.10460
S1043       S  0.37721433  0.34331713  0.36411980    -0.32890
S1044       S  0.52577298  0.23458320  0.32377236    -0.32900
H1045       H  0.53863292  0.26729466  0.31124031     0.28470
H1046       H  0.37246221  0.31712234  0.38047245     0.28470
H1047       H  0.40187682  0.33379238  0.32489209     0.19060
H1048       H  0.50190081  0.24524308  0.36331975     0.19070
C1049       C  0.28201802  0.66053449  0.36729105    -0.06760
C1050       C  0.26444752  0.62530085  0.35730527    -0.17890
C1051       C  0.26775303  0.62110095  0.33703019     0.10430
C1052       C  0.28878654  0.65300037  0.32630800    -0.06690
C1053       C  0.30370513  0.68950220  0.33611855    -0.17930
C1054       C  0.29965437  0.69410095  0.35629740     0.10460
S1055       S  0.24757781  0.57270510  0.32602696    -0.32890
S1056       S  0.31761342  0.74367414  0.36701354    -0.32900
H1057       H  0.28581616  0.74465057  0.38137135     0.28470
H1058       H  0.28244419  0.56710590  0.31349103     0.28470
H1059       H  0.25084417  0.59926028  0.36543258     0.19060
H1060       H  0.31816488  0.71503455  0.32794612     0.19070
C1061       C  0.81251212  0.46484430  0.32166834    -0.06760
C1062       C  0.77638236  0.48068290  0.33105529    -0.17890
C1063       C  0.77415956  0.48306790  0.35123501     0.10430
C1064       C  0.80845489  0.46795553  0.36277258    -0.06690
C1065       C  0.84564547  0.45373700  0.35358038    -0.17930
C1066       C  0.84798808  0.45174828  0.33312165     0.10460
S1067       S  0.72642328  0.50680232  0.36105609    -0.32890
S1068       S  0.89607027  0.43035309  0.32274532    -0.32900
H1069       H  0.87476636  0.40436639  0.30898415     0.28470
H1070       H  0.74461935  0.52170930  0.37856839     0.28470
H1071       H  0.74945716  0.49194825  0.32255668     0.19060
H1072       H  0.87208920  0.44226463  0.36231558     0.19070
C1073       C  0.93148888  0.31485953  0.63033360    -0.06760
C1074       C  0.97025054  0.32516081  0.63955501    -0.17890
C1075       C  0.97460438  0.32316759  0.65983089     0.10430
C1076       C  0.93957249  0.30987948  0.67113270    -0.06690
C1077       C  0.90022471  0.30172343  0.66188489    -0.17930
C1078       C  0.89585969  0.30416320  0.64166681     0.10460
S1079       S  0.02561002  0.33760967  0.67028766    -0.32890
S1080       S  0.84461493  0.29124237  0.63098280    -0.32900
H1081       H  0.85052336  0.31435320  0.61376178     0.28470
H1082       H  0.00829546  0.36005516  0.68618347     0.28470
H1083       H  0.99795124  0.33249542  0.63083911     0.19060
H1084       H  0.87286052  0.29243672  0.67041997     0.19070
C1085       C  0.94297936  0.31427364  0.36294801    -0.06760
C1086       C  0.90376397  0.31753902  0.35310185    -0.17890
C1087       C  0.90182358  0.31572452  0.33266970     0.10430
C1088       C  0.93998590  0.31122498  0.32195114    -0.06690
C1089       C  0.97914864  0.31099349  0.33186246    -0.17930
C1090       C  0.98108432  0.31320317  0.35211713     0.10460
S1091       S  0.84971308  0.31538399  0.32134387    -0.32890
S1092       S  0.03333698  0.31357495  0.36335558    -0.32900
H1093       H  0.02093396  0.33493954  0.38048851     0.28470
H1094       H  0.85981159  0.28508003  0.30690647     0.28470
H1095       H  0.87439520  0.31783629  0.36131640     0.19060
H1096       H  0.00860948  0.30909200  0.32374196     0.19070
C1097       C  0.91535691  0.29447237  0.47609152    -0.06760
C1098       C  0.92277029  0.33353579  0.48571086    -0.17890
C1099       C  0.92259701  0.33621288  0.50620390     0.10430
C1100       C  0.91527847  0.29903604  0.51710062    -0.06690
C1101       C  0.90378936  0.26138190  0.50733733    -0.17930
C1102       C  0.90333000  0.25872344  0.48713296     0.10460
S1103       S  0.93675667  0.38618411  0.51752433    -0.32890
S1104       S  0.88941449  0.20780203  0.47643741    -0.32900
H1105       H  0.87224035  0.22507990  0.45930772     0.28470
H1106       H  0.90656904  0.38302857  0.53245340     0.28470
H1107       H  0.93169991  0.36119948  0.47737048     0.19060
H1108       H  0.89736436  0.23286456  0.51559736     0.19070
C1109       C  0.29716557  0.17073371  0.63005529    -0.06760
C1110       C  0.30893958  0.13312435  0.63947661    -0.17890
C1111       C  0.30992475  0.13063684  0.65978407     0.10430
C1112       C  0.29791177  0.16635294  0.67109431    -0.06690
C1113       C  0.28727100  0.20439618  0.66166472    -0.17930
C1114       C  0.28625982  0.20689105  0.64131028     0.10460
S1115       S  0.32708301  0.08112498  0.67027245    -0.32890
S1116       S  0.26616047  0.25546204  0.63087421    -0.32900
H1117       H  0.28824955  0.25293234  0.61324961     0.28470
H1118       H  0.35131050  0.10036716  0.68531352     0.28470
H1119       H  0.31649710  0.10505542  0.63088733     0.19060
H1120       H  0.27792999  0.23194955  0.67021151     0.19070
C1121       C  0.07454714  0.26220323  0.57835574    -0.06760
C1122       C  0.08939697  0.23816724  0.59407644    -0.17890
C1123       C  0.13155709  0.22456221  0.59498292     0.10430
C1124       C  0.15937623  0.23452149  0.57967256    -0.06690
C1125       C  0.14593703  0.26215730  0.56494598    -0.17930
C1126       C  0.10345659  0.27583143  0.56400986     0.10460
S1127       S  0.14748306  0.19268032  0.61551639    -0.32890
S1128       S  0.08717978  0.30631100  0.54313260    -0.32900
H1129       H  0.04880029  0.28397939  0.53983545     0.28470
H1130       H  0.19114038  0.20274594  0.61462825     0.28470
H1131       H  0.06751441  0.22849621  0.60536505     0.19060
H1132       H  0.16735289  0.26972227  0.55315172     0.19070
C1133       C  0.27880284  0.16271956  0.36350535    -0.06760
C1134       C  0.31457816  0.18204921  0.35508684    -0.17890
C1135       C  0.32025286  0.18184325  0.33483249     0.10430
C1136       C  0.28907016  0.16249638  0.32256613    -0.06690
C1137       C  0.25346395  0.14339205  0.33094245    -0.17930
C1138       C  0.24801394  0.14294858  0.35104248     0.10460
S1139       S  0.36863567  0.20528404  0.32573735    -0.32890
S1140       S  0.20129069  0.11534486  0.35943594    -0.32900
H1141       H  0.22503683  0.08971402  0.37209845     0.28470
H1142       H  0.37601267  0.17293156  0.31187476     0.28470
H1143       H  0.33853671  0.19710130  0.36432549     0.19060
H1144       H  0.22943239  0.12843572  0.32169249     0.19070
C1145       C  0.07880494  0.27378550  0.42252418    -0.06760
C1146       C  0.09797887  0.26084385  0.40511004    -0.17890
C1147       C  0.13979196  0.24590759  0.40492865     0.10430
C1148       C  0.16267387  0.24303770  0.42261765    -0.06690
C1149       C  0.14474526  0.25893178  0.43984167    -0.17930
C1150       C  0.10299230  0.27473382  0.43993072     0.10460
S1151       S  0.16033782  0.22608307  0.38211964    -0.32890
S1152       S  0.08065023  0.29064534  0.46297329    -0.32900
H1153       H  0.05017520  0.31862163  0.45522476     0.28470
H1154       H  0.20328766  0.23551787  0.38639794     0.28470
H1155       H  0.07918820  0.25924315  0.39180234     0.19060
H1156       H  0.16216035  0.25621284  0.45347526     0.19070
C1157       C  0.31330173  0.18726681  0.47692263    -0.06760
C1158       C  0.33519609  0.15559158  0.48717999    -0.17890
C1159       C  0.33554400  0.15526486  0.50762132     0.10430
C1160       C  0.31275692  0.18676597  0.51798526    -0.06690
C1161       C  0.29373477  0.22009426  0.50766377    -0.17930
C1162       C  0.29443236  0.22106773  0.48732728     0.10460
S1163       S  0.35886494  0.10998249  0.51947063    -0.32890
S1164       S  0.26574839  0.26320874  0.47535536    -0.32900
H1165       H  0.28880841  0.26104797  0.45789247     0.28470
H1166       H  0.37758106  0.13409457  0.53464045     0.28470
H1167       H  0.34862986  0.12886107  0.47927447     0.19060
H1168       H  0.27562210  0.24404306  0.51546259     0.19070
C1169       C  0.16590097  0.80190397  0.63397556    -0.06760
C1170       C  0.13030364  0.78201052  0.64215032    -0.17890
C1171       C  0.12329956  0.78380486  0.66227172     0.10430
C1172       C  0.15314379  0.80510908  0.67454739    -0.06690
C1173       C  0.19020256  0.82226896  0.66633576    -0.17930
C1174       C  0.19701178  0.82054995  0.64630473     0.10460
S1175       S  0.07400650  0.76169761  0.67098191    -0.32890
S1176       S  0.24578659  0.84329657  0.63726299    -0.32900
H1177       H  0.24664633  0.81925239  0.61987992     0.28470
H1178       H  0.06464795  0.79680664  0.68306996     0.28470
H1179       H  0.10590185  0.76836973  0.63268802     0.19060
H1180       H  0.21419603  0.83725531  0.67558474     0.19070
C1181       C  0.21997742  0.94854636  0.57136160    -0.06760
C1182       C  0.21117470  0.97103690  0.55428435    -0.17890
C1183       C  0.22785695  0.01166559  0.55148495     0.10430
C1184       C  0.25295510  0.03076609  0.56630700    -0.06690
C1185       C  0.26487708  0.00686757  0.58263501    -0.17930
C1186       C  0.24820116  0.96602741  0.58543229     0.10460
S1187       S  0.21531660  0.03795345  0.52891715    -0.32890
S1188       S  0.26069225  0.93988673  0.60800272    -0.32900
H1189       H  0.21978739  0.92259960  0.61067929     0.28470
H1190       H  0.25225561  0.06352728  0.52878684     0.28470
H1191       H  0.19028552  0.95721130  0.54324424     0.19060
H1192       H  0.28406994  0.02146298  0.59410206     0.19070
C1193       C  0.17159053  0.79758858  0.36691654    -0.06760
C1194       C  0.20283926  0.81923163  0.35642764    -0.17890
C1195       C  0.20098289  0.82124193  0.33611465     0.10430
C1196       C  0.16708246  0.80089795  0.32586608    -0.06690
C1197       C  0.13757592  0.77663461  0.33641356    -0.17930
C1198       C  0.13939869  0.77493491  0.35677266     0.10460
S1199       S  0.24225595  0.85119154  0.32433812    -0.32890
S1200       S  0.09730216  0.74704688  0.36908239    -0.32900
H1201       H  0.12183514  0.73632414  0.38552723     0.28470
H1202       H  0.21395508  0.88369371  0.31880209     0.28470
H1203       H  0.22724881  0.83722199  0.36421166     0.19060
H1204       H  0.11177427  0.76026579  0.32884578     0.19070
C1205       C  0.22825582  0.94536452  0.41964650    -0.06760
C1206       C  0.24913325  0.96056483  0.43649138    -0.17890
C1207       C  0.26355641  0.00271810  0.43774295     0.10430
C1208       C  0.25755422  0.02964398  0.42166805    -0.06690
C1209       C  0.24055500  0.01311352  0.40425729    -0.17930
C1210       C  0.22600948  0.97123388  0.40304129     0.10460
S1211       S  0.28508093  0.02133794  0.46075583    -0.32890
S1212       S  0.20278588  0.95320775  0.38027099    -0.32900
H1213       H  0.21288026  0.91004155  0.38282921     0.28470
H1214       H  0.30905875  0.05519160  0.45327150     0.28470
H1215       H  0.25149734  0.94070888  0.44918919     0.19060
H1216       H  0.23644403  0.03357124  0.39183665     0.19070
C1217       C  0.17899118  0.81486412  0.48020663    -0.06760
C1218       C  0.17364550  0.77528340  0.48926757    -0.17890
C1219       C  0.17275699  0.77242771  0.50974265     0.10430
C1220       C  0.17827918  0.80979753  0.52111132    -0.06690
C1221       C  0.18805337  0.84809944  0.51192784    -0.17930
C1222       C  0.18874456  0.85101002  0.49178885     0.10460
S1223       S  0.16161898  0.72125511  0.52020046    -0.32890
S1224       S  0.20081298  0.90239492  0.48174946    -0.32900
H1225       H  0.22165234  0.88505077  0.46548696     0.28470
H1226       H  0.14207699  0.73617147  0.53726205     0.28470
H1227       H  0.16675550  0.74728021  0.48046583     0.19060
H1228       H  0.19308593  0.87678326  0.52059062     0.19070
C1229       C  0.78273435  0.93964706  0.36342902    -0.06760
C1230       C  0.77636042  0.90191404  0.35275005    -0.17890
C1231       C  0.77660356  0.90212381  0.33229637     0.10430
C1232       C  0.78402421  0.94081914  0.32244398    -0.06690
C1233       C  0.78733043  0.97871513  0.33320304    -0.17930
C1234       C  0.78579107  0.97858551  0.35348193     0.10460
S1235       S  0.77121544  0.85167495  0.31978909    -0.32890
S1236       S  0.79031959  0.02901233  0.36605681    -0.32900
H1237       H  0.76657735  0.01628114  0.38229068     0.28470
H1238       H  0.80251878  0.86005623  0.30576591     0.28470
H1239       H  0.77465058  0.87185542  0.36030842     0.19060
H1240       H  0.79158094  0.00866810  0.32575294     0.19070
C1241       C  0.93602840  0.86413066  0.41786243    -0.06760
C1242       C  0.95274992  0.85067630  0.43576473    -0.17890
C1243       C  0.99517829  0.83715076  0.43731256     0.10430
C1244       C  0.02102479  0.83693057  0.42059346    -0.06690
C1245       C  0.00309940  0.84673652  0.40243940    -0.17930
C1246       C  0.96081019  0.86021913  0.40089694     0.10460
S1247       S  0.01589128  0.82556545  0.46126530    -0.32890
S1248       S  0.94134656  0.87587501  0.37721763    -0.32900
H1249       H  0.89788752  0.86927627  0.38120348     0.28470
H1250       H  0.04902300  0.79878268  0.45505142     0.28470
H1251       H  0.93397746  0.85431756  0.44885854     0.19060
H1252       H  0.02301358  0.84678616  0.38959955     0.19070
C1253       C  0.88007097  0.16071861  0.40976119    -0.06760
C1254       C  0.90106528  0.13033832  0.39828211    -0.17890
C1255       C  0.88804085  0.08801979  0.39788714     0.10430
C1256       C  0.85408098  0.07508364  0.40984671    -0.06690
C1257       C  0.83020944  0.10597687  0.41979869    -0.17930
C1258       C  0.84243189  0.14892864  0.41958612     0.10460
S1259       S  0.91691992  0.05211288  0.38214290    -0.32890
S1260       S  0.81096299  0.18606605  0.43337417    -0.32900
H1261       H  0.80878450  0.21585495  0.41824998     0.28470
H1262       H  0.88226273  0.02478214  0.37822729     0.28470
H1263       H  0.92893925  0.13937719  0.39002410     0.19060
H1264       H  0.80330793  0.09638739  0.42856271     0.19070
C1265       C  0.78022868  0.93809352  0.63105818    -0.06760
C1266       C  0.79471789  0.90249531  0.64122538    -0.17890
C1267       C  0.79652135  0.90256785  0.66162178     0.10430
C1268       C  0.78368929  0.93928650  0.67214301    -0.06690
C1269       C  0.76687838  0.97390045  0.66188388    -0.17930
C1270       C  0.76474164  0.97352688  0.64154745     0.10460
S1271       S  0.81973556  0.85669279  0.67308086    -0.32890
S1272       S  0.74444283  0.02035275  0.62966677    -0.32900
H1273       H  0.73358607  0.00000090  0.61196315     0.28470
H1274       H  0.84732738  0.88062227  0.68522243     0.28470
H1275       H  0.80851780  0.87609030  0.63323191     0.19060
H1276       H  0.75604923  0.00186568  0.66974246     0.19070
C1277       C  0.93615439  0.88188693  0.57763520    -0.06760
C1278       C  0.96166607  0.88782646  0.56126138    -0.17890
C1279       C  0.00288905  0.87186504  0.56059169     0.10430
C1280       C  0.01954982  0.85016598  0.57677817    -0.06690
C1281       C  0.99315487  0.84121562  0.59263936    -0.17930
C1282       C  0.95135829  0.85712961  0.59328513     0.10460
S1283       S  0.03378907  0.88210600  0.53910270    -0.32890
S1284       S  0.92073076  0.84783904  0.61497955    -0.32900
H1285       H  0.89843637  0.88656627  0.61491966     0.28470
H1286       H  0.05530328  0.84293484  0.53961374     0.28470
H1287       H  0.94984308  0.90638975  0.54913302     0.19060
H1288       H  0.00611890  0.82469049  0.60513434     0.19070
C1289       C  0.83661600  0.08566362  0.57981675    -0.06760
C1290       C  0.82641534  0.11012061  0.56344275    -0.17890
C1291       C  0.84171298  0.15183961  0.56176866     0.10430
C1292       C  0.86699201  0.16931050  0.57696102    -0.06690
C1293       C  0.87357541  0.14624147  0.59404372    -0.17930
C1294       C  0.85834465  0.10481761  0.59570985     0.10460
S1295       S  0.83262678  0.17869577  0.53902864    -0.32890
S1296       S  0.86935889  0.07730598  0.61812047    -0.32900
H1297       H  0.83229211  0.05211351  0.61725976     0.28470
H1298       H  0.83354532  0.22019782  0.54673929     0.28470
H1299       H  0.80934276  0.09577095  0.55128988     0.19060
H1300       H  0.89260122  0.15988450  0.60581690     0.19070
C1301       C  0.80326679  0.94799801  0.47649891    -0.06760
C1302       C  0.82034885  0.98277904  0.48690880    -0.17890
C1303       C  0.81979465  0.98457983  0.50713407     0.10430
C1304       C  0.80178502  0.95076129  0.51771845    -0.06690
C1305       C  0.78205470  0.91702995  0.50749141    -0.17930
C1306       C  0.78246301  0.91540040  0.48695381     0.10460
S1307       S  0.84407741  0.03066365  0.51859224    -0.32890
S1308       S  0.76004226  0.86916574  0.47510764    -0.32900
H1309       H  0.73424521  0.89306717  0.46243599     0.28470
H1310       H  0.81541597  0.03154487  0.53417761     0.28470
H1311       H  0.83556808  0.00862091  0.47922874     0.19060
H1312       H  0.76847141  0.89078814  0.51548286     0.19070
C1313       C  0.68193387  0.29613021  0.13216399    -0.06760
C1314       C  0.64390020  0.28335249  0.14099256    -0.17890
C1315       C  0.63994430  0.28314203  0.16123102     0.10430
C1316       C  0.67449035  0.29705965  0.17300731    -0.06690
C1317       C  0.71378872  0.30613549  0.16422326    -0.17930
C1318       C  0.71781017  0.30585671  0.14390704     0.10460
S1319       S  0.58979492  0.26558697  0.17105659    -0.32890
S1320       S  0.76788291  0.32267126  0.13377976    -0.32900
H1321       H  0.76342868  0.29925066  0.11633323     0.28470
H1322       H  0.60800853  0.24558310  0.18737357     0.28470
H1323       H  0.61615966  0.27605981  0.13201245     0.19060
H1324       H  0.74084992  0.31579639  0.17316260     0.19070
C1325       C  0.66716949  0.32315290  0.86211785    -0.06760
C1326       C  0.68100148  0.35720770  0.85069455    -0.17890
C1327       C  0.68119113  0.35427991  0.83044569     0.10430
C1328       C  0.66693413  0.31655311  0.82123048    -0.06690
C1329       C  0.65501561  0.28162005  0.83260718    -0.17930
C1330       C  0.65393527  0.28490487  0.85297456     0.10460
S1331       S  0.70076609  0.39941392  0.81719140    -0.32890
S1332       S  0.63120132  0.24124758  0.86621894    -0.32900
H1333       H  0.60843093  0.26677424  0.87944767     0.28470
H1334       H  0.72348290  0.37461505  0.80366861     0.28470
H1335       H  0.69125626  0.38668134  0.85763354     0.19060
H1336       H  0.64392994  0.25258778  0.82555723     0.19070
C1337       C  0.66765900  0.32934266  0.97795507    -0.06760
C1338       C  0.63601293  0.35008224  0.98869009    -0.17890
C1339       C  0.63418019  0.34781429  0.00874203     0.10430
C1340       C  0.66643943  0.32619381  0.01909219    -0.06690
C1341       C  0.69801751  0.30413213  0.00860416    -0.17930
C1342       C  0.69909501  0.30581290  0.98804590     0.10460
S1343       S  0.58903096  0.37328502  0.02009590    -0.32890
S1344       S  0.74318232  0.28123364  0.97576088    -0.32900
H1345       H  0.74901435  0.31445150  0.96245520     0.28470
H1346       H  0.58566578  0.34286547  0.03482215     0.28470
H1347       H  0.61206948  0.36885914  0.98140538     0.19060
H1348       H  0.72318594  0.28780052  0.01641112     0.19070
C1349       C  0.79422638  0.67532951  0.17156178    -0.06760
C1350       C  0.79714986  0.63726640  0.16086140    -0.17890
C1351       C  0.79828652  0.63731861  0.14054875     0.10430
C1352       C  0.79561813  0.67614396  0.13048049    -0.06690
C1353       C  0.79406855  0.71439917  0.14105693    -0.17930
C1354       C  0.79315206  0.71445590  0.16147852     0.10460
S1355       S  0.80268147  0.58664612  0.12822612    -0.32890
S1356       S  0.78687747  0.76509790  0.17362565    -0.32900
H1357       H  0.75644827  0.75031816  0.18693216     0.28470
H1358       H  0.82382339  0.60243296  0.11181609     0.28470
H1359       H  0.79894334  0.60714638  0.16837867     0.19060
H1360       H  0.79045064  0.74410567  0.13336794     0.19070
C1361       C  0.75846759  0.54066071  0.07623749    -0.06760
C1362       C  0.73919521  0.52741311  0.09348524    -0.17890
C1363       C  0.72790187  0.48501495  0.09619458     0.10430
C1364       C  0.73463509  0.45527915  0.08106104    -0.06690
C1365       C  0.75653629  0.46777008  0.06429611    -0.17930
C1366       C  0.76867769  0.51033670  0.06172804     0.10460
S1367       S  0.70274314  0.47111039  0.11882447    -0.32890
S1368       S  0.79183089  0.52466730  0.03873636    -0.32900
H1369       H  0.81497146  0.56003610  0.04568927     0.28470
H1370       H  0.71520414  0.42812747  0.11849001     0.28470
H1371       H  0.73113533  0.55066291  0.10460735     0.19060
H1372       H  0.76114721  0.44508469  0.05251679     0.19070
C1373       C  0.77295516  0.68365684  0.86413978    -0.06760
C1374       C  0.73745530  0.67182858  0.85255651    -0.17890
C1375       C  0.74003675  0.66827394  0.83231587     0.10430
C1376       C  0.77931379  0.67574498  0.82307694    -0.06690
C1377       C  0.81464321  0.68865004  0.83445229    -0.17930
C1378       C  0.81189359  0.69290959  0.85476667     0.10460
S1379       S  0.69155654  0.65563502  0.81914717    -0.32890
S1380       S  0.85923402  0.70981594  0.86770271    -0.32900
H1381       H  0.83784735  0.74122216  0.87858806     0.28470
H1382       H  0.69854366  0.68568984  0.80445640     0.28470
H1383       H  0.70705124  0.66513585  0.85927977     0.19060
H1384       H  0.84483784  0.69512687  0.82747977     0.19070
C1385       C  0.74788123  0.54567918  0.92428803    -0.06760
C1386       C  0.75751682  0.52197910  0.90746388    -0.17890
C1387       C  0.74556919  0.47906901  0.90582836     0.10430
C1388       C  0.72417912  0.45982214  0.92145962    -0.06690
C1389       C  0.71786048  0.48262094  0.93877400    -0.17930
C1390       C  0.72959671  0.52520076  0.94040248     0.10460
S1391       S  0.75396246  0.45234365  0.88281627    -0.32890
S1392       S  0.71830221  0.55215704  0.96307813    -0.32900
H1393       H  0.75298633  0.58032535  0.96203906     0.28470
H1394       H  0.75456135  0.41080614  0.89014505     0.28470
H1395       H  0.77145593  0.53769465  0.89504635     0.19060
H1396       H  0.70137178  0.46775439  0.95076790     0.19070
C1397       C  0.81288465  0.69377630  0.97690929    -0.06760
C1398       C  0.80476297  0.73133855  0.98746310    -0.17890
C1399       C  0.80248109  0.73087873  0.00791939     0.10430
C1400       C  0.80968674  0.69236887  0.01791115    -0.06690
C1401       C  0.82310782  0.65650568  0.00740223    -0.17930
C1402       C  0.82525110  0.65696168  0.98710538     0.10460
S1403       S  0.78518209  0.77881994  0.02009565    -0.32890
S1404       S  0.83967115  0.60812105  0.97483075    -0.32900
H1405       H  0.85105184  0.62715705  0.95714554     0.28470
H1406       H  0.75869587  0.75887722  0.03368917     0.28470
H1407       H  0.79501330  0.75968105  0.97976063     0.19060
H1408       H  0.82901922  0.62694674  0.01496882     0.19070
C1409       C  0.43061046  0.78463184  0.12990639    -0.06760
C1410       C  0.43013715  0.74667358  0.14061900    -0.17890
C1411       C  0.43003159  0.74705509  0.16095289     0.10430
C1412       C  0.43116672  0.78623847  0.17105694    -0.06690
C1413       C  0.43018259  0.82427479  0.16047998    -0.17930
C1414       C  0.43058309  0.82395491  0.14007833     0.10460
S1415       S  0.42654537  0.69657959  0.17310229    -0.32890
S1416       S  0.43381490  0.87457876  0.12810576    -0.32900
H1417       H  0.46705103  0.86195710  0.11568073     0.28470
H1418       H  0.39928766  0.71119065  0.18788629     0.28470
H1419       H  0.42937529  0.71621407  0.13309194     0.19060
H1420       H  0.43095714  0.85454361  0.16818059     0.19070
C1421       C  0.56968521  0.77340349  0.07137144    -0.06760
C1422       C  0.58820115  0.76203610  0.08921053    -0.17890
C1423       C  0.63049756  0.74829831  0.09021004     0.10430
C1424       C  0.65457083  0.74572986  0.07298403    -0.06690
C1425       C  0.63707269  0.76011661  0.05540319    -0.17930
C1426       C  0.59477976  0.77412189  0.05443920     0.10460
S1427       S  0.65051340  0.73021191  0.11342303    -0.32890
S1428       S  0.57337508  0.78851190  0.03094389    -0.32900
H1429       H  0.54044672  0.81454417  0.03802619     0.28470
H1430       H  0.69379063  0.73836600  0.10969185     0.28470
H1431       H  0.56871697  0.76093954  0.10217698     0.19060
H1432       H  0.65547503  0.75773922  0.04214460     0.19070
C1433       C  0.43107948  0.78660273  0.86673205    -0.06760
C1434       C  0.46567327  0.76810872  0.85691530    -0.17890
C1435       C  0.47041867  0.77192796  0.83678275     0.10430
C1436       C  0.43910740  0.79368817  0.82583484    -0.06690
C1437       C  0.40436905  0.81200162  0.83567381    -0.17930
C1438       C  0.39997349  0.80871099  0.85587728     0.10460
S1439       S  0.51792024  0.74958349  0.82625561    -0.32890
S1440       S  0.35290213  0.83139556  0.86665386    -0.32900
H1441       H  0.34542160  0.79685712  0.87906910     0.28470
H1442       H  0.52726588  0.78602514  0.81530414     0.28470
H1443       H  0.49003680  0.75140135  0.86509342     0.19060
H1444       H  0.37957891  0.82796600  0.82749220     0.19070
C1445       C  0.56138088  0.77494437  0.93140845    -0.06760
C1446       C  0.58513006  0.78248954  0.91457395    -0.17890
C1447       C  0.62804663  0.77046743  0.91358612     0.10430
C1448       C  0.64729022  0.75061152  0.92978485    -0.06690
C1449       C  0.62445116  0.74658727  0.94711554    -0.17930
C1450       C  0.58184102  0.75899134  0.94815747     0.10460
S1451       S  0.65443969  0.77533046  0.89048630    -0.32890
S1452       S  0.55434415  0.75119746  0.97083781    -0.32900
H1453       H  0.52390861  0.78338233  0.96790299     0.28470
H1454       H  0.69450232  0.78592248  0.89848830     0.28470
H1455       H  0.56930692  0.79437438  0.90162570     0.19060
H1456       H  0.63918224  0.73137997  0.95957033     0.19070
C1457       C  0.39815244  0.82746210  0.97801779    -0.06760
C1458       C  0.36652762  0.80584421  0.98834121    -0.17890
C1459       C  0.36791316  0.80397729  0.00869224     0.10430
C1460       C  0.40101925  0.82504907  0.01901329    -0.06690
C1461       C  0.42951737  0.85089498  0.00881157    -0.17930
C1462       C  0.42848037  0.85219473  0.98840882     0.10460
S1463       S  0.33138844  0.76799450  0.02034215    -0.32890
S1464       S  0.47097382  0.87997721  0.97634392    -0.32900
H1465       H  0.44897988  0.88495454  0.95857712     0.28470
H1466       H  0.33339232  0.78756105  0.03882043     0.28470
H1467       H  0.34382625  0.78590394  0.98047018     0.19060
H1468       H  0.45564658  0.86627842  0.01658847     0.19070
C1469       C  0.31818828  0.44117255  0.17280253    -0.06760
C1470       C  0.28033844  0.44395106  0.16175354    -0.17890
C1471       C  0.28100422  0.44340143  0.14132749     0.10430
C1472       C  0.32043800  0.43959376  0.13165390    -0.06690
C1473       C  0.35808707  0.43609627  0.14281821    -0.17930
C1474       C  0.35737610  0.43648514  0.16313747     0.10460
S1475       S  0.23136432  0.45249862  0.12866587    -0.32890
S1476       S  0.40737596  0.42940687  0.17583846    -0.32900
H1477       H  0.39048460  0.40191170  0.18986734     0.28470
H1478       H  0.23429380  0.41612741  0.11675297     0.28470
H1479       H  0.25009684  0.44779635  0.16909491     0.19060
H1480       H  0.38857182  0.43274540  0.13562927     0.19070
C1481       C  0.53124260  0.34406798  0.07957466    -0.06760
C1482       C  0.50798154  0.33607957  0.06237067    -0.17890
C1483       C  0.46548840  0.34926197  0.06058475     0.10430
C1484       C  0.44586293  0.36976408  0.07650154    -0.06690
C1485       C  0.46776296  0.37361008  0.09428740    -0.17930
C1486       C  0.51017480  0.36074163  0.09601905     0.10460
S1487       S  0.43972112  0.34349017  0.03710778    -0.32890
S1488       S  0.53658274  0.36858780  0.11923881    -0.32900
H1489       H  0.56649722  0.33576024  0.11672010     0.28470
H1490       H  0.39770580  0.34332537  0.04408020     0.28470
H1491       H  0.52373628  0.32260005  0.04980222     0.19060
H1492       H  0.45259125  0.38921137  0.10655442     0.19070
C1493       C  0.36798393  0.66068258  0.06528922    -0.06760
C1494       C  0.34922623  0.64532046  0.08232953    -0.17890
C1495       C  0.33600968  0.60285878  0.08355147     0.10430
C1496       C  0.34134000  0.57557345  0.06730884    -0.06690
C1497       C  0.35696697  0.59191392  0.04986421    -0.17930
C1498       C  0.37014421  0.63417837  0.04863107     0.10460
S1499       S  0.31893357  0.58389179  0.10693225    -0.32890
S1500       S  0.39166000  0.65147102  0.02571895    -0.32900
H1501       H  0.38482990  0.69512119  0.02872677     0.28470
H1502       H  0.28568981  0.55838845  0.09942736     0.28470
H1503       H  0.34809431  0.66544374  0.09523265     0.19060
H1504       H  0.36107174  0.57094215  0.03739535     0.19070
C1505       C  0.31983914  0.44292807  0.86415656    -0.06760
C1506       C  0.28072776  0.43341703  0.85499548    -0.17890
C1507       C  0.27610007  0.43572691  0.83470348     0.10430
C1508       C  0.31152089  0.44737479  0.82320340    -0.06690
C1509       C  0.35061634  0.45616676  0.83232802    -0.17930
C1510       C  0.35552111  0.45315307  0.85246123     0.10460
S1511       S  0.22371160  0.42563918  0.82459039    -0.32890
S1512       S  0.40891071  0.46098391  0.86190632    -0.32900
H1513       H  0.40648402  0.42770267  0.87536153     0.28470
H1514       H  0.22575418  0.45848265  0.81084381     0.28470
H1515       H  0.25318380  0.42560096  0.86371406     0.19060
H1516       H  0.37815785  0.46402907  0.82360290     0.19070
C1517       C  0.52145254  0.34317049  0.92398635    -0.06760
C1518       C  0.49542100  0.33532672  0.90763269    -0.17890
C1519       C  0.45238331  0.34745587  0.90767601     0.10430
C1520       C  0.43609131  0.36905237  0.92413884    -0.06690
C1521       C  0.46101059  0.37247723  0.94105558    -0.17930
C1522       C  0.50320650  0.35915729  0.94121574     0.10460
S1523       S  0.42164674  0.33932876  0.88569662    -0.32890
S1524       S  0.53324374  0.36662102  0.96339074    -0.32900
H1525       H  0.56128958  0.33263372  0.95975432     0.28470
H1526       H  0.38418389  0.32755051  0.89538756     0.28470
H1527       H  0.50933407  0.32281343  0.89437088     0.19060
H1528       H  0.44830315  0.38816665  0.95388677     0.19070
C1529       C  0.32992903  0.57806203  0.92855485    -0.06760
C1530       C  0.34319939  0.59704691  0.94612419    -0.17890
C1531       C  0.35615292  0.63955192  0.94681486     0.10430
C1532       C  0.35664098  0.66331534  0.92951066    -0.06690
C1533       C  0.34014214  0.64544962  0.91224217    -0.17930
C1534       C  0.32678966  0.60291185  0.91157052     0.10460
S1535       S  0.37430353  0.66106276  0.96991009    -0.32890
S1536       S  0.31220939  0.58060987  0.88813458    -0.32900
H1537       H  0.28105593  0.55273276  0.89524285     0.28470
H1538       H  0.36489548  0.70375907  0.96569667     0.28470
H1539       H  0.34576819  0.57797947  0.95915311     0.19060
H1540       H  0.34098131  0.66355273  0.89888668     0.19070
C1541       C  0.29237856  0.41093443  0.97766359    -0.06760
C1542       C  0.26183854  0.43440791  0.98800008    -0.17890
C1543       C  0.26178525  0.43464995  0.00848979     0.10430
C1544       C  0.29249799  0.41053615  0.01872177    -0.06690
C1545       C  0.31938224  0.38331261  0.00825770    -0.17930
C1546       C  0.31999135  0.38353175  0.98795198     0.10460
S1547       S  0.22681762  0.47141006  0.02066526    -0.32890
S1548       S  0.36047703  0.35195365  0.97610260    -0.32900
H1549       H  0.33990828  0.34932508  0.95784534     0.28470
H1550       H  0.22026566  0.44541245  0.03690950     0.28470
H1551       H  0.24109843  0.45607730  0.98023608     0.19060
H1552       H  0.34319989  0.36489612  0.01598240     0.19070
C1553       C  0.81649658  0.16955220  0.86222701    -0.06760
C1554       C  0.85336470  0.16247103  0.85108502    -0.17890
C1555       C  0.85194439  0.16111000  0.83080745     0.10430
C1556       C  0.81260791  0.16640065  0.82107592    -0.06690
C1557       C  0.77584255  0.17495833  0.83203707    -0.17930
C1558       C  0.77723793  0.17591490  0.85246460     0.10460
S1559       S  0.90186012  0.15433324  0.81829207    -0.32890
S1560       S  0.72771118  0.18287313  0.86508446    -0.32900
H1561       H  0.73459153  0.14835603  0.87761924     0.28470
H1562       H  0.89285509  0.18490859  0.80401216     0.28470
H1563       H  0.88403774  0.15832684  0.85820919     0.19060
H1564       H  0.74546484  0.17926552  0.82466653     0.19070
C1565       C  0.80694122  0.19109037  0.13503703    -0.06760
C1566       C  0.76844071  0.17606510  0.14273424    -0.17890
C1567       C  0.76455064  0.16816134  0.16275849     0.10430
C1568       C  0.79990396  0.17551013  0.17535702    -0.06690
C1569       C  0.83705060  0.19349442  0.16777230    -0.17930
C1570       C  0.84054454  0.20231099  0.14800839     0.10460
S1571       S  0.71501601  0.14568002  0.17096067    -0.32890
S1572       S  0.88891651  0.22806836  0.14029454    -0.32900
H1573       H  0.86866215  0.25082151  0.12530513     0.28470
H1574       H  0.73441052  0.11563247  0.18321820     0.28470
H1575       H  0.74239738  0.16742242  0.13298756     0.19060
H1576       H  0.86363569  0.20121939  0.17738968     0.19070
C1577       C  0.80873190  0.18476091  0.02005227    -0.06760
C1578       C  0.84804742  0.19105576  0.01100196    -0.17890
C1579       C  0.85152407  0.19247555  0.99088680     0.10430
C1580       C  0.81474520  0.18676529  0.97905270    -0.06690
C1581       C  0.77466290  0.18344825  0.98802598    -0.17930
C1582       C  0.77125473  0.18249441  0.00850378     0.10460
S1583       S  0.90454936  0.20024036  0.98141703    -0.32890
S1584       S  0.71902693  0.17590690  0.01879618    -0.32900
H1585       H  0.73219070  0.15260557  0.03512795     0.28470
H1586       H  0.89092841  0.22121202  0.96454698     0.28470
H1587       H  0.87691167  0.19372457  0.01978384     0.19060
H1588       H  0.74628591  0.17914090  0.97910287     0.19070
C1589       C  0.17037663  0.31931171  0.86424182    -0.06760
C1590       C  0.20098201  0.29786722  0.85310496    -0.17890
C1591       C  0.19752498  0.29529614  0.83283645     0.10430
C1592       C  0.16259175  0.31449769  0.82324215    -0.06690
C1593       C  0.13350209  0.33841451  0.83425734    -0.17930
C1594       C  0.13698228  0.34094749  0.85461994     0.10460
S1595       S  0.23905597  0.26767642  0.81998260    -0.32890
S1596       S  0.09526484  0.36793879  0.86762276    -0.32900
H1597       H  0.12367503  0.39089910  0.87972746     0.28470
H1598       H  0.21240561  0.23282641  0.81538755     0.28470
H1599       H  0.22670847  0.28112039  0.86035192     0.19060
H1600       H  0.10695222  0.35387943  0.82704030     0.19070
C1601       C  0.02609098  0.27099405  0.91375464    -0.06760
C1602       C  0.99797513  0.28817519  0.92750907    -0.17890
C1603       C  0.95559236  0.27400844  0.92832460     0.10430
C1604       C  0.94194562  0.24112667  0.91553337    -0.06690
C1605       C  0.96893385  0.22750435  0.90056920    -0.17930
C1606       C  0.01049482  0.24280248  0.89928900     0.10460
S1607       S  0.92230827  0.29580319  0.94713503    -0.32890
S1608       S  0.04274744  0.22388405  0.87936432    -0.32900
H1609       H  0.06933174  0.26001141  0.87870031     0.28470
H1610       H  0.88572012  0.29838775  0.93525685     0.28470
H1611       H  0.00974662  0.31050354  0.93843314     0.19060
H1612       H  0.95810026  0.20333489  0.89027392     0.19070
C1613       C  0.16016330  0.29311748  0.13053186    -0.06760
C1614       C  0.12457496  0.27739465  0.14054236    -0.17890
C1615       C  0.12138046  0.28103591  0.16074810     0.10430
C1616       C  0.15460603  0.30070088  0.17151705    -0.06690
C1617       C  0.18983042  0.31742591  0.16159101    -0.17930
C1618       C  0.19346203  0.31293282  0.14131015     0.10460
S1619       S  0.07341777  0.26107676  0.17181033    -0.32890
S1620       S  0.24278247  0.32958041  0.13044967    -0.32900
H1621       H  0.24612058  0.29376634  0.11811933     0.28470
H1622       H  0.07042759  0.29421667  0.18564935     0.28470
H1623       H  0.09860158  0.26233633  0.13252607     0.19060
H1624       H  0.21578227  0.33203338  0.16979781     0.19070
C1625       C  0.02844921  0.26243433  0.06357485    -0.06760
C1626       C  0.00209003  0.28182488  0.07747948    -0.17890
C1627       C  0.95933936  0.26943008  0.07929511     0.10430
C1628       C  0.94323260  0.23618545  0.06733750    -0.06690
C1629       C  0.96845797  0.22009179  0.05222451    -0.17930
C1630       C  0.01047543  0.23355669  0.04994037     0.10460
S1631       S  0.92877109  0.29350099  0.09848282    -0.32890
S1632       S  0.03992094  0.21170364  0.02973541    -0.32900
H1633       H  0.06677709  0.24729697  0.02758739     0.28470
H1634       H  0.89303136  0.30113272  0.08652593     0.28470
H1635       H  0.01551961  0.30454256  0.08782312     0.19060
H1636       H  0.95577389  0.19563608  0.04253024     0.19070
C1637       C  0.17957567  0.32614534  0.01822820    -0.06760
C1638       C  0.21590757  0.31605396  0.00733813    -0.17890
C1639       C  0.21496582  0.31696592  0.98691365     0.10430
C1640       C  0.17692607  0.32828594  0.97711627    -0.06690
C1641       C  0.14175033  0.34157696  0.98808654    -0.17930
C1642       C  0.14265281  0.34063996  0.00846099     0.10460
S1643       S  0.26001693  0.29523860  0.97420301    -0.32890
S1644       S  0.09347114  0.35152768  0.02100557    -0.32900
H1645       H  0.11281872  0.36603835  0.03837659     0.28470
H1646       H  0.26038066  0.32708627  0.95998520     0.28470
H1647       H  0.24380603  0.30343182  0.01468331     0.19060
H1648       H  0.11210679  0.34934310  0.98070192     0.19070
C1649       C  0.28433682  0.96284663  0.86583592    -0.06760
C1650       C  0.32138094  0.94673647  0.85716981    -0.17890
C1651       C  0.32619605  0.94646177  0.83685623     0.10430
C1652       C  0.29333029  0.96301204  0.82479957    -0.06690
C1653       C  0.25707870  0.98030263  0.83357115    -0.17930
C1654       C  0.25260268  0.98135855  0.85374390     0.10460
S1655       S  0.37419881  0.92305752  0.82737696    -0.32890
S1656       S  0.20632346  0.00888971  0.86285093    -0.32900
H1657       H  0.22902807  0.03069975  0.87763390     0.28470
H1658       H  0.35244237  0.89694351  0.81378215     0.28470
H1659       H  0.34617982  0.93304428  0.86621192     0.19060
H1660       H  0.23215206  0.99411558  0.82462373     0.19070
C1661       C  0.25651490  0.09103864  0.92727447    -0.06760
C1662       C  0.25194866  0.11083563  0.90918572    -0.17890
C1663       C  0.23730579  0.15268137  0.90796875     0.10430
C1664       C  0.22743478  0.17522087  0.92521547    -0.06690
C1665       C  0.23479992  0.15640193  0.94334023    -0.17930
C1666       C  0.24959773  0.11456751  0.94453803     0.10460
S1667       S  0.22743827  0.17394858  0.88405132    -0.32890
S1668       S  0.25757331  0.09228428  0.96839440    -0.32900
H1669       H  0.28873485  0.06264530  0.96272128     0.28470
H1670       H  0.23858180  0.21599837  0.88906085     0.28470
H1671       H  0.25707608  0.09273761  0.89589848     0.19060
H1672       H  0.22719576  0.17371268  0.95658384     0.19070
C1673       C  0.29331201  0.94856694  0.17100184    -0.06760
C1674       C  0.26517463  0.91919691  0.16223258    -0.17890
C1675       C  0.26388155  0.91333032  0.14204108     0.10430
C1676       C  0.29079432  0.93780597  0.13012526    -0.06690
C1677       C  0.32011725  0.96604393  0.13884235    -0.17930
C1678       C  0.32124940  0.97214884  0.15910232     0.10460
S1679       S  0.22739026  0.87382190  0.13233237    -0.32890
S1680       S  0.35635356  0.01297034  0.16863266    -0.32900
H1681       H  0.32719427  0.02839007  0.18246788     0.28470
H1682       H  0.25161995  0.86388736  0.11574853     0.28470
H1683       H  0.24434896  0.90016567  0.17120328     0.19060
H1684       H  0.34013072  0.98565228  0.12975146     0.19070
C1685       C  0.26425002  0.08212157  0.07225645    -0.06760
C1686       C  0.25980862  0.10414004  0.08995578    -0.17890
C1687       C  0.24653112  0.14660571  0.09027743     0.10430
C1688       C  0.23739024  0.16708819  0.07253167    -0.06690
C1689       C  0.24486172  0.14593154  0.05485221    -0.17930
C1690       C  0.25851336  0.10370203  0.05453665     0.10460
S1691       S  0.23678122  0.17115812  0.11367791    -0.32890
S1692       S  0.26423269  0.07775133  0.03115046    -0.32900
H1693       H  0.29516886  0.04832944  0.03726815     0.28470
H1694       H  0.24341678  0.21323100  0.10767373     0.28470
H1695       H  0.26372011  0.08734003  0.10357001     0.19060
H1696       H  0.23729652  0.16147666  0.04122857     0.19070
C1697       C  0.31896376  0.92778489  0.97715638    -0.06760
C1698       C  0.29869381  0.89348924  0.98618674    -0.17890
C1699       C  0.29639580  0.89132073  0.00654112     0.10430
C1700       C  0.31651156  0.92300596  0.01813336    -0.06690
C1701       C  0.34081463  0.95451481  0.00905377    -0.17930
C1702       C  0.34189844  0.95745904  0.98873261     0.10460
S1703       S  0.26050588  0.85254237  0.01661485    -0.32890
S1704       S  0.36831583  0.00293426  0.97842688    -0.32900
H1705       H  0.37386714  0.98481883  0.95980513     0.28470
H1706       H  0.28059754  0.85036778  0.03493490     0.28470
H1707       H  0.27991736  0.87135963  0.97742922     0.19060
H1708       H  0.35532524  0.97961753  0.01781557     0.19070
C1709       C  0.93788509  0.81556080  0.86623498    -0.06760
C1710       C  0.89921968  0.80992927  0.85617149    -0.17890
C1711       C  0.89767796  0.80994793  0.83575780     0.10430
C1712       C  0.93583217  0.81549196  0.82507927    -0.06690
C1713       C  0.97458776  0.81970783  0.83527781    -0.17930
C1714       C  0.97608537  0.81932360  0.85559990     0.10460
S1715       S  0.84571666  0.80585779  0.82444730    -0.32890
S1716       S  0.02790827  0.82392441  0.86711827    -0.32900
H1717       H  0.01730033  0.80094695  0.88389186     0.28470
H1718       H  0.85276163  0.83963250  0.81154040     0.28470
H1719       H  0.86970777  0.80835909  0.86423703     0.19060
H1720       H  0.00417181  0.82294873  0.82736170     0.19070
C1721       C  0.85474079  0.95020586  0.92113795    -0.06760
C1722       C  0.84742157  0.97089832  0.93894989    -0.17890
C1723       C  0.83317488  0.01284113  0.93955268     0.10430
C1724       C  0.82657873  0.03460928  0.92198196    -0.06690
C1725       C  0.83003941  0.01279573  0.90416073    -0.17930
C1726       C  0.84397799  0.97054490  0.90355115     0.10460
S1727       S  0.82905571  0.03863247  0.96305998    -0.32890
S1728       S  0.85344885  0.94668418  0.87998886    -0.32900
H1729       H  0.84663601  0.90450012  0.88579002     0.28470
H1730       H  0.80003812  0.07015030  0.95717592     0.28470
H1731       H  0.85622587  0.95552300  0.95244333     0.19060
H1732       H  0.82570507  0.02986604  0.89063949     0.19070
C1733       C  0.06767746  0.86351674  0.92630663    -0.06760
C1734       C  0.08305212  0.88396420  0.90975728    -0.17890
C1735       C  0.12550394  0.89641225  0.90856277     0.10430
C1736       C  0.15312098  0.88973947  0.92450692    -0.06690
C1737       C  0.13886792  0.86632998  0.94050595    -0.17930
C1738       C  0.09611641  0.85308034  0.94158447     0.10460
S1739       S  0.14250024  0.92194472  0.88655687    -0.32890
S1740       S  0.07927292  0.82632463  0.96333569    -0.32900
H1741       H  0.03782204  0.84322187  0.96378990     0.28470
H1742       H  0.18341939  0.90369716  0.88689810     0.28470
H1743       H  0.06148943  0.89121215  0.89781304     0.19060
H1744       H  0.16014298  0.86114298  0.95277177     0.19070
C1745       C  0.93414710  0.80921656  0.13314149    -0.06760
C1746       C  0.97354356  0.80293687  0.14247985    -0.17890
C1747       C  0.97697241  0.80214087  0.16276304     0.10430
C1748       C  0.94033533  0.80928111  0.17418270    -0.06690
C1749       C  0.90054017  0.81380289  0.16481563    -0.17930
C1750       C  0.89707849  0.81375616  0.14445079     0.10460
S1751       S  0.02893977  0.79157178  0.17303993    -0.32890
S1752       S  0.84567293  0.82476672  0.13378059    -0.32900
H1753       H  0.84889592  0.79315893  0.11926087     0.28470
H1754       H  0.01359927  0.76438373  0.18758744     0.28470
H1755       H  0.00216590  0.79966695  0.13385197     0.19060
H1756       H  0.87214773  0.81901955  0.17339735     0.19070
C1757       C  0.86327193  0.95207360  0.08618408    -0.06760
C1758       C  0.83622550  0.96565442  0.07111903    -0.17890
C1759       C  0.82327464  0.00821671  0.07015927     0.10430
C1760       C  0.83688743  0.03710841  0.08484322    -0.06690
C1761       C  0.85985785  0.02209440  0.10095920    -0.17930
C1762       C  0.87277563  0.97978422  0.10187201     0.10460
S1763       S  0.79420185  0.02463038  0.04876147    -0.32890
S1764       S  0.90355215  0.96344999  0.12282629    -0.32900
H1765       H  0.89299865  0.91998024  0.12131881     0.28470
H1766       H  0.81871617  0.06142631  0.04563953     0.28470
H1767       H  0.82896542  0.94432871  0.05902989     0.19060
H1768       H  0.86967214  0.04400918  0.11244932     0.19070
C1769       C  0.06827138  0.85838705  0.06834774    -0.06760
C1770       C  0.08266476  0.87982614  0.05186054    -0.17890
C1771       C  0.12532108  0.89182779  0.05016090     0.10430
C1772       C  0.15417673  0.88308770  0.06546589    -0.06690
C1773       C  0.14071817  0.85852912  0.08123152    -0.17930
C1774       C  0.09784006  0.84653813  0.08296957     0.10460
S1775       S  0.14078583  0.91936574  0.02837671    -0.32890
S1776       S  0.08209751  0.82070061  0.10511848    -0.32900
H1777       H  0.04554696  0.84575838  0.10791180     0.28470
H1778       H  0.18395800  0.90740938  0.02910254     0.28470
H1779       H  0.06022785  0.88832711  0.04045441     0.19060
H1780       H  0.16274205  0.85206180  0.09309556     0.19070
C1781       C  0.90659825  0.81187164  0.02028030    -0.06760
C1782       C  0.87998226  0.84022888  0.01031567    -0.17890
C1783       C  0.87829123  0.84078173  0.99003354     0.10430
C1784       C  0.90428111  0.81277227  0.97920682    -0.06690
C1785       C  0.92687220  0.78084441  0.98902495    -0.17930
C1786       C  0.92861379  0.78036158  0.00951876     0.10460
S1787       S  0.84475188  0.88033355  0.97880244    -0.32890
S1788       S  0.96349145  0.74242751  0.02089717    -0.32900
H1789       H  0.98450686  0.77267752  0.03281342     0.28470
H1790       H  0.83911505  0.85816483  0.96105921     0.28470
H1791       H  0.86218283  0.86396092  0.01841119     0.19060
H1792       H  0.94686255  0.75919533  0.98082619     0.19070
loop_ 
_geom_bond_atom_site_label_1 
_geom_bond_atom_site_label_2 
_geom_bond_distance 
_geom_bond_site_symmetry_2 
_ccdc_geom_bond_type 
In1           O3   2.253       .  S
In1           O4   2.206       .  S
In1          O12   2.195       .  S
In1           O6   2.268       .  S
In1           O8   2.283       .  S
In1           O9   2.217       .  S
In1          O10   2.198       .  S
In1          O13   2.251   1_655  S
C2            O8   1.268       .  A
C2           O10   1.258       .  A
C2         C1781   1.478       .  S
O3           C11   1.263       .  A
O4           C11   1.261       .  A
C5           O12   1.256       .  A
C5            O6   1.269       .  A
C5         C1745   1.469       .  S
C7            O9   1.261   1_455  A
C7           O13   1.263       .  A
C7         C1769   1.468       .  S
C11        C1757   1.464       .  S
In14         O16   2.258   1_655  S
In14         O17   2.201       .  S
In14         O25   2.197       .  S
In14         O19   2.275       .  S
In14         O21   2.284       .  S
In14         O22   2.204       .  S
In14         O23   2.197       .  S
In14         O26   2.252       .  S
C15          O21   1.269       .  A
C15          O23   1.257       .  A
C15        C1784   1.476       .  S
O16          C24   1.264       .  A
O17          C24   1.260   1_655  A
C18          O25   1.255       .  A
C18          O19   1.269       .  A
C18        C1709   1.471       .  S
C20          O22   1.260       .  A
C20          O26   1.263       .  A
C20        C1721   1.461       .  S
C24        C1733   1.464       .  S
In27         O29   2.254       .  S
In27         O30   2.209       .  S
In27         O38   2.212       .  S
In27         O32   2.267       .  S
In27         O34   2.282       .  S
In27         O35   2.217   1_565  S
In27         O36   2.207       .  S
In27         O39   2.252   1_565  S
C28          O34   1.266       .  A
C28          O36   1.254       .  A
C28        C1700   1.470       .  S
O29          C37   1.264       .  A
O30          C37   1.261       .  A
C31          O38   1.258       .  A
C31          O32   1.267       .  A
C31        C1676   1.472       .  S
C33          O35   1.259       .  A
C33          O39   1.261       .  A
C33        C1685   1.461       .  S
C37        C1772   1.467       .  S
In40         O42   2.243   1_565  S
In40         O43   2.221   1_565  S
In40         O51   2.194       .  S
In40         O45   2.282       .  S
In40         O47   2.280       .  S
In40         O48   2.213       .  S
In40         O49   2.209       .  S
In40         O52   2.262       .  S
C41          O47   1.266       .  A
C41          O49   1.256       .  A
C41        C1697   1.471       .  S
O42          C50   1.263       .  A
O43          C50   1.263       .  A
C44          O51   1.254       .  A
C44          O45   1.270       .  A
C44        C1649   1.483       .  S
C46          O48   1.260       .  A
C46          O52   1.262       .  A
C46        C1736   1.465       .  S
C50        C1661   1.464       .  S
In53         O55   2.252       .  S
In53         O56   2.206       .  S
In53         O64   2.204       .  S
In53         O58   2.272       .  S
In53         O60   2.277       .  S
In53         O61   2.209       .  S
In53         O62   2.208       .  S
In53         O65   2.252       .  S
C54          O60   1.267       .  A
C54          O62   1.256       .  A
C54        C1637   1.471       .  S
O55          C63   1.264       .  A
O56          C63   1.259       .  A
C57          O64   1.258       .  A
C57          O58   1.269       .  A
C57        C1613   1.482       .  S
C59          O61   1.260       .  A
C59          O65   1.263       .  A
C59        C1625   1.470       .  S
C63        C1688   1.461       .  S
In66         O68   2.250       .  S
In66         O69   2.205       .  S
In66         O77   2.208       .  S
In66         O71   2.275       .  S
In66         O73   2.270       .  S
In66         O74   2.219       .  S
In66         O75   2.217       .  S
In66         O78   2.247       .  S
C67          O73   1.266       .  A
C67          O75   1.257       .  A
C67        C1640   1.476       .  S
O68          C76   1.262       .  A
O69          C76   1.261       .  A
C70          O77   1.254       .  A
C70          O71   1.265       .  A
C70        C1589   1.474       .  S
C72          O74   1.261       .  A
C72          O78   1.264       .  A
C72        C1664   1.463       .  S
C76        C1601   1.464       .  S
In79         O81   2.254       .  S
In79         O82   2.205       .  S
In79         O90   2.184       .  S
In79         O84   2.280       .  S
In79         O86   2.287       .  S
In79         O87   2.201       .  S
In79         O88   2.179       .  S
In79         O91   2.255       .  S
C80          O86   1.271       .  A
C80          O88   1.257       .  A
C80        C1577   1.474       .  S
O81          C89   1.264       .  A
O82          C89   1.262       .  A
C83          O90   1.256       .  A
C83          O84   1.271       .  A
C83        C1565   1.480       .  S
C85          O87   1.260       .  A
C85          O91   1.265       .  A
C85        C1760   1.466       .  S
C89        C1628   1.470       .  S
In92         O94   2.242       .  S
In92         O95   2.192       .  S
In92        O103   2.173       .  S
In92         O97   2.266       .  S
In92         O99   2.282       .  S
In92        O100   2.198       .  S
In92        O101   2.175       .  S
In92        O104   2.252       .  S
C93          O99   1.273       .  A
C93         O101   1.259       .  A
C93        C1580   1.479       .  S
O94         C102   1.267       .  A
O95         C102   1.263       .  A
C96         O103   1.259       .  A
C96          O97   1.275       .  A
C96        C1553   1.482       .  S
C98         O100   1.263       .  A
C98         O104   1.265       .  A
C98        C1604   1.467       .  S
C102       C1724   1.458       .  S
In105       O107   2.248       .  S
In105       O108   2.197       .  S
In105       O116   2.185       .  S
In105       O110   2.266       .  S
In105       O112   2.282       .  S
In105       O113   2.208       .  S
In105       O114   2.188       .  S
In105       O117   2.246       .  S
C106        O112   1.271       .  A
C106        O114   1.257       .  A
C106       C1541   1.472       .  S
O107        C115   1.264       .  A
O108        C115   1.263       .  A
C109        O116   1.257       .  A
C109        O110   1.272       .  A
C109       C1505   1.480       .  S
C111        O113   1.262       .  A
C111        O117   1.265       .  A
C111       C1529   1.464       .  S
C115       C1520   1.464       .  S
In118       O120   2.248       .  S
In118       O121   2.210       .  S
In118       O129   2.202       .  S
In118       O123   2.263       .  S
In118       O125   2.282       .  S
In118       O126   2.210       .  S
In118       O127   2.200       .  S
In118       O130   2.250       .  S
C119        O125   1.267       .  A
C119        O127   1.257       .  A
C119       C1544   1.474       .  S
O120        C128   1.262       .  A
O121        C128   1.259       .  A
C122        O129   1.259       .  A
C122        O123   1.268       .  A
C122       C1472   1.479       .  S
C124        O126   1.261       .  A
C124        O130   1.264       .  A
C124       C1484   1.462       .  S
C128       C1496   1.463       .  S
In131       O133   2.255       .  S
In131       O134   2.212       .  S
In131       O142   2.209       .  S
In131       O136   2.257       .  S
In131       O138   2.285       .  S
In131       O139   2.209       .  S
In131       O140   2.196       .  S
In131       O143   2.252       .  S
C132        O138   1.267       .  A
C132        O140   1.254       .  A
C132       C1457   1.468       .  S
O133        C141   1.262       .  A
O134        C141   1.259       .  A
C135        O142   1.260       .  A
C135        O136   1.269       .  A
C135       C1433   1.479       .  S
C137        O139   1.261       .  A
C137        O143   1.263       .  A
C137       C1445   1.464       .  S
C141       C1532   1.464       .  S
In144       O146   2.253       .  S
In144       O147   2.212       .  S
In144       O155   2.204       .  S
In144       O149   2.260       .  S
In144       O151   2.279       .  S
In144       O152   2.214       .  S
In144       O153   2.207       .  S
In144       O156   2.249       .  S
C145        O151   1.266       .  A
C145        O153   1.256       .  A
C145       C1460   1.469       .  S
O146        C154   1.263       .  A
O147        C154   1.259       .  A
C148        O155   1.259       .  A
C148        O149   1.269       .  A
C148       C1409   1.481       .  S
C150        O152   1.260       .  A
C150        O156   1.262       .  A
C150       C1493   1.465       .  S
C154       C1421   1.461       .  S
In157       O159   2.253       .  S
In157       O160   2.211       .  S
In157       O168   2.208       .  S
In157       O162   2.267       .  S
In157       O164   2.296       .  S
In157       O165   2.209       .  S
In157       O166   2.197       .  S
In157       O169   2.249       .  S
C158        O164   1.267       .  A
C158        O166   1.254       .  A
C158       C1397   1.474       .  S
O159        C167   1.263       .  A
O160        C167   1.259       .  A
C161        O168   1.259       .  A
C161        O162   1.268       .  A
C161       C1373   1.489       .  S
C163        O165   1.262       .  A
C163        O169   1.264       .  A
C163       C1385   1.465       .  S
C167       C1448   1.464       .  S
In170       O172   2.248       .  S
In170       O173   2.212       .  S
In170       O181   2.207       .  S
In170       O175   2.275       .  S
In170       O177   2.280       .  S
In170       O178   2.220       .  S
In170       O179   2.213       .  S
In170       O182   2.256       .  S
C171        O177   1.266       .  A
C171        O179   1.258       .  A
C171       C1400   1.473       .  S
O172        C180   1.265       .  A
O173        C180   1.262       .  A
C174        O181   1.255       .  A
C174        O175   1.267       .  A
C174       C1352   1.468       .  S
C176        O178   1.258       .  A
C176        O182   1.260       .  A
C176       C1424   1.462       .  S
C180       C1361   1.465       .  S
In183       O185   2.244       .  S
In183       O186   2.193       .  S
In183       O194   2.179       .  S
In183       O188   2.261       .  S
In183       O190   2.290       .  S
In183       O191   2.203       .  S
In183       O192   2.165       .  S
In183       O195   2.258       .  S
C184        O190   1.272       .  A
C184        O192   1.258       .  A
C184       C1337   1.482       .  S
O185        C193   1.266       .  A
O186        C193   1.262       .  A
C187        O194   1.258       .  A
C187        O188   1.272       .  A
C187       C1325   1.468       .  S
C189        O191   1.260       .  A
C189        O195   1.264       .  A
C189       C1517   1.463       .  S
C193       C1388   1.458       .  S
In196       O198   2.264       .  S
In196       O199   2.216       .  S
In196       O207   2.185       .  S
In196       O201   2.278       .  S
In196       O203   2.283       .  S
In196       O204   2.200       .  S
In196       O205   2.177       .  S
In196       O208   2.258       .  S
C197        O203   1.269       .  A
C197        O205   1.258       .  A
C197       C1340   1.476       .  S
O198        C206   1.262       .  A
O199        C206   1.259       .  A
C200        O207   1.254       .  A
C200        O201   1.268       .  A
C200       C1313   1.464       .  S
C202        O204   1.260       .  A
C202        O208   1.265       .  A
C202       C1364   1.465       .  S
C206       C1481   1.468       .  S
In209       O211   2.258   1_565  S
In209       O212   2.204   1_565  S
In209       O220   2.190       .  S
In209       O214   2.280       .  S
In209       O216   2.290       .  S
In209       O217   2.197       .  S
In209       O218   2.195       .  S
In209       O221   2.261       .  S
C210        O216   1.269       .  A
C210        O218   1.256       .  A
C210       C1304   1.477       .  S
O211        C219   1.265       .  A
O212        C219   1.261       .  A
C213        O220   1.253       .  A
C213        O214   1.269       .  A
C213       C1265   1.465       .  S
C215        O217   1.258       .  A
C215        O221   1.263       .  A
C215       C1277   1.461       .  S
C219       C1289   1.467       .  S
In222       O224   2.266       .  S
In222       O225   2.206       .  S
In222       O233   2.197       .  S
In222       O227   2.284       .  S
In222       O229   2.279       .  S
In222       O230   2.204   1_565  S
In222       O231   2.198       .  S
In222       O234   2.253   1_565  S
C223        O229   1.267       .  A
C223        O231   1.259       .  A
C223       C1301   1.486       .  S
O224        C232   1.264       .  A
O225        C232   1.257       .  A
C226        O233   1.254       .  A
C226        O227   1.266       .  A
C226       C1229   1.467       .  S
C228        O230   1.260       .  A
C228        O234   1.264       .  A
C228       C1256   1.469       .  S
C232       C1241   1.464       .  S
In235       O237   2.256       .  S
In235       O238   2.215       .  S
In235       O246   2.194       .  S
In235       O240   2.269       .  S
In235       O242   2.277       .  S
In235       O243   2.216       .  S
In235       O244   2.193       .  S
In235       O247   2.254       .  S
C236        O242   1.268       .  A
C236        O244   1.259       .  A
C236       C1217   1.476       .  S
O237        C245   1.263       .  A
O238        C245   1.261       .  A
C239        O246   1.256       .  A
C239        O240   1.268       .  A
C239       C1193   1.464       .  S
C241        O243   1.260       .  A
C241        O247   1.263       .  A
C241       C1244   1.463       .  S
C245       C1205   1.466       .  S
In248       O250   2.258       .  S
In248       O251   2.208       .  S
In248       O259   2.203       .  S
In248       O253   2.264       .  S
In248       O255   2.291       .  S
In248       O256   2.208       .  S
In248       O257   2.182       .  S
In248       O260   2.252       .  S
C249        O255   1.267       .  A
C249        O257   1.253       .  A
C249       C1220   1.468       .  S
O250        C258   1.262       .  A
O251        C258   1.259       .  A
C252        O259   1.256       .  A
C252        O253   1.265       .  A
C252       C1169   1.466       .  S
C254        O256   1.261       .  A
C254        O260   1.265       .  A
C254       C1181   1.464       .  S
C258       C1280   1.462       .  S
In261       O263   2.248       .  S
In261       O264   2.209       .  S
In261       O272   2.190       .  S
In261       O266   2.272       .  S
In261       O268   2.272       .  S
In261       O269   2.215       .  S
In261       O270   2.198       .  S
In261       O273   2.246       .  S
C262        O268   1.268       .  A
C262        O270   1.258       .  A
C262       C1157   1.468       .  S
O263        C271   1.264       .  A
O264        C271   1.262       .  A
C265        O272   1.256       .  A
C265        O266   1.271       .  A
C265       C1133   1.485       .  S
C267        O269   1.261       .  A
C267        O273   1.263       .  A
C267       C1208   1.461       .  S
C271       C1148   1.461       .  S
In274       O276   2.247       .  S
In274       O277   2.215       .  S
In274       O285   2.202       .  S
In274       O279   2.265       .  S
In274       O281   2.272       .  S
In274       O282   2.201       .  S
In274       O283   2.208       .  S
In274       O286   2.253       .  S
C275        O281   1.266       .  A
C275        O283   1.257       .  A
C275       C1160   1.474       .  S
O276        C284   1.262       .  A
O277        C284   1.261       .  A
C278        O285   1.256       .  A
C278        O279   1.268       .  A
C278       C1109   1.467       .  S
C280        O282   1.261       .  A
C280        O286   1.263       .  A
C280       C1124   1.462       .  S
C284       C1184   1.468       .  S
In287       O289   2.264       .  S
In287       O290   2.201       .  S
In287       O298   2.186       .  S
In287       O292   2.281       .  S
In287       O294   2.281       .  S
In287       O295   2.202   1_655  S
In287       O296   2.188       .  S
In287       O299   2.256   1_655  S
C288        O294   1.269       .  A
C288        O296   1.257       .  A
C288       C1097   1.476       .  S
O289        C297   1.263       .  A
O290        C297   1.259       .  A
C291        O298   1.255       .  A
C291        O292   1.269       .  A
C291       C1085   1.470       .  S
C293        O295   1.260       .  A
C293        O299   1.265       .  A
C293       C1145   1.462       .  S
C297       C1253   1.474       .  S
In300       O302   2.254   1_655  S
In300       O303   2.206   1_655  S
In300       O311   2.196       .  S
In300       O305   2.271       .  S
In300       O307   2.278       .  S
In300       O308   2.203       .  S
In300       O309   2.189       .  S
In300       O312   2.244       .  S
C301        O307   1.267       .  A
C301        O309   1.258       .  A
C301       C1100   1.474       .  S
O302        C310   1.262       .  A
O303        C310   1.259       .  A
C304        O311   1.253       .  A
C304        O305   1.267       .  A
C304       C1073   1.462       .  S
C306        O308   1.263       .  A
C306        O312   1.265       .  A
C306       C1292   1.461       .  S
C310       C1121   1.465       .  S
In313       O315   2.256       .  S
In313       O316   2.256       .  S
In313       O324   2.263       .  S
In313       O318   2.284       .  S
In313       O320   2.261       .  S
In313       O321   2.240       .  S
In313       O322   2.259       .  S
In313       O325   2.259       .  S
C314        O320   1.265       .  A
C314        O322   1.262       .  A
C314        C444   1.475       .  S
O315        C323   1.258       .  A
O316        C323   1.257       .  A
C317        O324   1.254       .  A
C317        O318   1.257       .  A
C317        C369   1.472       .  S
C319        O321   1.256       .  A
C319        O325   1.263       .  A
C319       C1469   1.475       .  S
C323        C327   1.464       .  S
In326       O328   2.263       .  S
In326       O329   2.281       .  S
In326       O337   2.236       .  S
In326       O331   2.247       .  S
In326       O333   2.260       .  S
In326       O334   2.269       .  S
In326       O335   2.245       .  S
In326       O338   2.247       .  S
C327        O333   1.262       .  A
C327        O335   1.257       .  A
O328        C336   1.254       .  A
O329        C336   1.259       .  A
C330        O337   1.264       .  A
C330        O331   1.262       .  A
C330       C1616   1.476       .  S
C332        O334   1.261       .  A
C332        O338   1.256       .  A
C332        C462   1.467       .  S
C336        C356   1.474       .  S
In339       O341   2.248       .  S
In339       O342   2.272       .  S
In339       O350   2.233       .  S
In339       O344   2.260       .  S
In339       O346   2.256       .  S
In339       O347   2.263       .  S
In339       O348   2.253       .  S
In339       O351   2.268       .  S
C340        O346   1.258       .  A
C340        O348   1.258       .  A
C340        C358   1.463       .  S
O341        C349   1.261       .  A
O342        C349   1.266       .  A
C343        O350   1.261       .  A
C343        O344   1.257       .  A
C343       C1061   1.481       .  S
C345        O347   1.255       .  A
C345        O351   1.259       .  A
C345        C395   1.471       .  S
C349        C470   1.474       .  S
In352       O354   2.236       .  S
In352       O355   2.242       .  S
In352       O363   2.272   1_655  S
In352       O357   2.274       .  S
In352       O359   2.269       .  S
In352       O360   2.265       .  S
In352       O361   2.255       .  S
In352       O364   2.245       .  S
C353        O359   1.258       .  A
C353        O361   1.259       .  A
C353        C483   1.470       .  S
O354        C362   1.266       .  A
O355        C362   1.260       .  A
C356        O363   1.255       .  A
C356        O357   1.258   1_455  A
C358        O360   1.260       .  A
C358        O364   1.256       .  A
C362       C1088   1.472       .  S
In365       O367   2.263       .  S
In365       O368   2.249       .  S
In365       O376   2.256       .  S
In365       O370   2.271       .  S
In365       O372   2.247       .  S
In365       O373   2.242       .  S
In365       O374   2.255       .  S
In365       O377   2.251       .  S
C366        O372   1.264       .  A
C366        O374   1.263       .  A
C366        C418   1.470       .  S
O367        C375   1.255       .  A
O368        C375   1.255       .  A
C369        O376   1.259       .  A
C369        O370   1.259       .  A
C371        O373   1.259       .  A
C371        O377   1.263       .  A
C371       C1052   1.479       .  S
C375        C384   1.459       .  S
In378       O380   2.240       .  S
In378       O381   2.252       .  S
In378       O389   2.273       .  S
In378       O383   2.253       .  S
In378       O385   2.253       .  S
In378       O386   2.245       .  S
In378       O387   2.257       .  S
In378       O390   2.261       .  S
C379        O385   1.265       .  A
C379        O387   1.262       .  A
C379        C436   1.473       .  S
O380        C388   1.258       .  A
O381        C388   1.260       .  A
C382        O389   1.258       .  A
C382        O383   1.256       .  A
C382        C408   1.469       .  S
C384        O386   1.255       .  A
C384        O390   1.257       .  A
C388       C1196   1.483       .  S
In391       O393   2.262       .  S
In391       O394   2.243       .  S
In391       O402   2.262       .  S
In391       O396   2.272       .  S
In391       O398   2.255       .  S
In391       O399   2.240       .  S
In391       O400   2.261       .  S
In391       O403   2.249       .  S
C392        O398   1.263       .  A
C392        O400   1.261       .  A
C392        C505   1.473       .  S
O393        C401   1.259       .  A
O394        C401   1.257       .  A
C395        O402   1.256       .  A
C395        O396   1.259       .  A
C397        O399   1.258       .  A
C397        O403   1.263       .  A
C397       C1349   1.478       .  S
C401        C410   1.463       .  S
In404       O406   2.250       .  S
In404       O407   2.243       .  S
In404       O415   2.254   1_655  S
In404       O409   2.270   1_655  S
In404       O411   2.250       .  S
In404       O412   2.243       .  S
In404       O413   2.243       .  S
In404       O416   2.260       .  S
C405        O411   1.262       .  A
C405        O413   1.262       .  A
C405        C509   1.466       .  S
O406        C414   1.262       .  A
O407        C414   1.258       .  A
C408        O415   1.257       .  A
C408        O409   1.258       .  A
C410        O412   1.258       .  A
C410        O416   1.259       .  A
C414       C1748   1.478       .  S
In417       O419   2.266       .  S
In417       O420   2.234       .  S
In417       O428   2.267       .  S
In417       O422   2.268       .  S
In417       O424   2.260       .  S
In417       O425   2.238       .  S
In417       O426   2.246       .  S
In417       O429   2.261       .  S
C418        O424   1.264       .  A
C418        O426   1.261       .  A
O419        C427   1.261       .  A
O420        C427   1.258       .  A
C421        O428   1.255       .  A
C421        O422   1.256       .  A
C421        C501   1.469       .  S
C423        O425   1.254       .  A
C423        O429   1.262       .  A
C423       C1412   1.472       .  S
C427        C431   1.464       .  S
In430       O432   2.266   1_565  S
In430       O433   2.267   1_565  S
In430       O441   2.248       .  S
In430       O435   2.247       .  S
In430       O437   2.241       .  S
In430       O438   2.267       .  S
In430       O439   2.273       .  S
In430       O442   2.248       .  S
C431        O437   1.256       .  A
C431        O439   1.258       .  A
O432        C440   1.257       .  A
O433        C440   1.257       .  A
C434        O441   1.261       .  A
C434        O435   1.258       .  A
C434       C1673   1.478       .  S
C436        O438   1.266       .  A
C436        O442   1.260       .  A
C440        C466   1.472       .  S
In443       O445   2.276       .  S
In443       O446   2.249       .  S
In443       O454   2.263       .  S
In443       O448   2.276       .  S
In443       O450   2.264       .  S
In443       O451   2.250       .  S
In443       O452   2.255       .  S
In443       O455   2.245       .  S
C444        O450   1.265       .  A
C444        O452   1.262       .  A
O445        C453   1.258       .  A
O446        C453   1.255       .  A
C447        O454   1.258       .  A
C447        O448   1.257       .  A
C447        C473   1.474       .  S
C449        O451   1.258       .  A
C449        O455   1.263       .  A
C449       C1037   1.480       .  S
C453        C457   1.466       .  S
In456       O458   2.268       .  S
In456       O459   2.267       .  S
In456       O467   2.242       .  S
In456       O461   2.247       .  S
In456       O463   2.244       .  S
In456       O464   2.245       .  S
In456       O465   2.265       .  S
In456       O468   2.256       .  S
C457        O463   1.259       .  A
C457        O465   1.260       .  A
O458        C466   1.258       .  A
O459        C466   1.257       .  A
C460        O467   1.262       .  A
C460        O461   1.257       .  A
C460       C1136   1.476       .  S
C462        O464   1.263       .  A
C462        O468   1.261       .  A
In469       O471   2.250       .  S
In469       O472   2.245       .  S
In469       O480   2.257       .  S
In469       O474   2.283       .  S
In469       O476   2.247       .  S
In469       O477   2.244       .  S
In469       O478   2.263       .  S
In469       O481   2.252       .  S
C470        O476   1.264       .  A
C470        O478   1.264       .  A
O471        C479   1.258       .  A
O472        C479   1.257       .  A
C473        O480   1.256       .  A
C473        O474   1.260       .  A
C475        O477   1.256       .  A
C475        O481   1.263       .  A
C475       C1316   1.476       .  S
C479        C488   1.459       .  S
In482       O484   2.233       .  S
In482       O485   2.251       .  S
In482       O493   2.266       .  S
In482       O487   2.269       .  S
In482       O489   2.271       .  S
In482       O490   2.254       .  S
In482       O491   2.253       .  S
In482       O494   2.246       .  S
C483        O489   1.262       .  A
C483        O491   1.257       .  A
O484        C492   1.266       .  A
O485        C492   1.261       .  A
C486        O493   1.254       .  A
C486        O487   1.256       .  A
C486        C512   1.469       .  S
C488        O490   1.259       .  A
C488        O494   1.256       .  A
C492       C1568   1.478       .  S
In495       O497   2.252       .  S
In495       O498   2.265       .  S
In495       O506   2.243       .  S
In495       O500   2.259       .  S
In495       O502   2.246       .  S
In495       O503   2.262       .  S
In495       O504   2.246       .  S
In495       O507   2.267       .  S
C496        O502   1.260       .  A
C496        O504   1.260       .  A
C496        C514   1.459       .  S
O497        C505   1.261       .  A
O498        C505   1.265       .  A
C499        O506   1.261       .  A
C499        O500   1.255       .  A
C499       C1025   1.479       .  S
C501        O503   1.255       .  A
C501        O507   1.257       .  A
In508       O510   2.242       .  S
In508       O511   2.247       .  S
In508       O519   2.259   1_565  S
In508       O513   2.267   1_565  S
In508       O515   2.262       .  S
In508       O516   2.255       .  S
In508       O517   2.255       .  S
In508       O520   2.239       .  S
C509        O515   1.258       .  A
C509        O517   1.257       .  A
O510        C518   1.265       .  A
O511        C518   1.259       .  A
C512        O519   1.255       .  A
C512        O513   1.259       .  A
C514        O516   1.261       .  A
C514        O520   1.257       .  A
C518       C1232   1.473       .  S
In521       O523   2.260       .  S
In521       O524   2.266       .  S
In521       O532   2.231       .  S
In521       O526   2.245       .  S
In521       O528   2.226       .  S
In521       O529   2.258       .  S
In521       O530   2.287       .  S
In521       O533   2.241       .  S
C522        O528   1.253       .  A
C522        O530   1.259       .  A
C522        C544   1.462       .  S
O523        C531   1.257       .  A
O524        C531   1.257       .  A
C525        O532   1.260       .  A
C525        O526   1.262       .  A
C525       C1013   1.480       .  S
C527        O529   1.264       .  A
C527        O533   1.259       .  A
C527        C657   1.467       .  S
C531        C577   1.469       .  S
In534       O536   2.287       .  S
In534       O537   2.227       .  S
In534       O545   2.265       .  S
In534       O539   2.277       .  S
In534       O541   2.262       .  S
In534       O542   2.248       .  S
In534       O543   2.258       .  S
In534       O546   2.236       .  S
C535        O541   1.264       .  A
C535        O543   1.260       .  A
C535        C665   1.475       .  S
O536        C544   1.260       .  A
O537        C544   1.252       .  A
C538        O545   1.256       .  A
C538        O539   1.258       .  A
C538        C564   1.474       .  S
C540        O542   1.260       .  A
C540        O546   1.261       .  A
C540       C1172   1.478       .  S
In547       O549   2.255       .  S
In547       O550   2.245       .  S
In547       O558   2.275       .  S
In547       O552   2.272       .  S
In547       O554   2.256       .  S
In547       O555   2.252       .  S
In547       O556   2.263       .  S
In547       O559   2.265       .  S
C548        O554   1.260       .  A
C548        O556   1.264       .  A
C548        C704   1.472       .  S
O549        C557   1.263       .  A
O550        C557   1.258       .  A
C551        O558   1.256       .  A
C551        O552   1.257       .  A
C551        C603   1.474       .  S
C553        O555   1.258       .  A
C553        O559   1.259       .  A
C553        C570   1.467       .  S
C557       C1376   1.479       .  S
In560       O562   2.262       .  S
In560       O563   2.248       .  S
In560       O571   2.265   1_655  S
In560       O565   2.272   1_655  S
In560       O567   2.256       .  S
In560       O568   2.241       .  S
In560       O569   2.253       .  S
In560       O572   2.255       .  S
C561        O567   1.263       .  A
C561        O569   1.261       .  A
C561        C717   1.470       .  S
O562        C570   1.260       .  A
O563        C570   1.259       .  A
C564        O571   1.259       .  A
C564        O565   1.258       .  A
C566        O568   1.256       .  A
C566        O572   1.263       .  A
C566       C1712   1.481       .  S
In573       O575   2.254       .  S
In573       O576   2.241       .  S
In573       O584   2.268       .  S
In573       O578   2.261       .  S
In573       O580   2.258       .  S
In573       O581   2.231       .  S
In573       O582   2.248       .  S
In573       O585   2.257       .  S
C574        O580   1.263       .  A
C574        O582   1.261       .  A
C574        C626   1.470       .  S
O575        C583   1.262       .  A
O576        C583   1.255       .  A
C577        O584   1.257       .  A
C577        O578   1.257       .  A
C579        O581   1.259       .  A
C579        O585   1.261       .  A
C579        C587   1.460       .  S
C583       C1508   1.475       .  S
In586       O588   2.244       .  S
In586       O589   2.268       .  S
In586       O597   2.243       .  S
In586       O591   2.258       .  S
In586       O593   2.239       .  S
In586       O594   2.275       .  S
In586       O595   2.269       .  S
In586       O598   2.251       .  S
C587        O593   1.255       .  A
C587        O595   1.258       .  A
O588        C596   1.260       .  A
O589        C596   1.266       .  A
C590        O597   1.259       .  A
C590        O591   1.259       .  A
C590       C1592   1.479       .  S
C592        O594   1.258       .  A
C592        O598   1.256       .  A
C592        C616   1.469       .  S
C596        C648   1.472       .  S
In599       O601   2.236       .  S
In599       O602   2.256       .  S
In599       O610   2.265       .  S
In599       O604   2.279       .  S
In599       O606   2.264       .  S
In599       O607   2.242       .  S
In599       O608   2.255       .  S
In599       O611   2.256       .  S
C600        O606   1.264       .  A
C600        O608   1.259       .  A
C600        C678   1.471       .  S
O601        C609   1.262       .  A
O602        C609   1.258       .  A
C603        O610   1.255       .  A
C603        O604   1.258       .  A
C605        O607   1.260       .  A
C605        O611   1.260       .  A
C605        C622   1.462       .  S
C609       C1001   1.480       .  S
In612       O614   2.258       .  S
In612       O615   2.242       .  S
In612       O623   2.250   1_655  S
In612       O617   2.272   1_655  S
In612       O619   2.241       .  S
In612       O620   2.230       .  S
In612       O621   2.254       .  S
In612       O624   2.256       .  S
C613        O619   1.263       .  A
C613        O621   1.262       .  A
C613        C691   1.467       .  S
O614        C622   1.259       .  A
O615        C622   1.257       .  A
C616        O623   1.258       .  A
C616        O617   1.259       .  A
C618        O620   1.257       .  A
C618        O624   1.262       .  A
C618       C1076   1.475       .  S
In625       O627   2.249       .  S
In625       O628   2.250       .  S
In625       O636   2.267       .  S
In625       O630   2.256       .  S
In625       O632   2.251       .  S
In625       O633   2.244       .  S
In625       O634   2.260       .  S
In625       O637   2.256       .  S
C626        O632   1.261       .  A
C626        O634   1.261       .  A
O627        C635   1.260       .  A
O628        C635   1.257       .  A
C629        O636   1.260       .  A
C629        O630   1.256       .  A
C629        C681   1.470       .  S
C631        O633   1.261       .  A
C631        O637   1.261       .  A
C631        C639   1.465       .  S
C635        C989   1.482       .  S
In638       O640   2.262       .  S
In638       O641   2.250       .  S
In638       O649   2.253       .  S
In638       O643   2.241       .  S
In638       O645   2.248       .  S
In638       O646   2.271       .  S
In638       O647   2.262       .  S
In638       O650   2.265       .  S
C639        O645   1.258       .  A
C639        O647   1.259       .  A
O640        C648   1.261       .  A
O641        C648   1.263       .  A
C642        O649   1.262       .  A
C642        O643   1.257       .  A
C642       C1112   1.477       .  S
C644        O646   1.259       .  A
C644        O650   1.258       .  A
C644        C668   1.475       .  S
In651       O653   2.273       .  S
In651       O654   2.271       .  S
In651       O662   2.254       .  S
In651       O656   2.236       .  S
In651       O658   2.251       .  S
In651       O659   2.247       .  S
In651       O660   2.268       .  S
In651       O663   2.253       .  S
C652        O658   1.258       .  A
C652        O660   1.258       .  A
C652        C674   1.467       .  S
O653        C661   1.257       .  A
O654        C661   1.256       .  A
C655        O662   1.262       .  A
C655        O656   1.258       .  A
C655       C1436   1.483       .  S
C657        O659   1.264       .  A
C657        O663   1.261       .  A
C661        C707   1.473       .  S
In664       O666   2.268       .  S
In664       O667   2.243       .  S
In664       O675   2.274   1_565  S
In664       O669   2.273   1_565  S
In664       O671   2.269       .  S
In664       O672   2.248       .  S
In664       O673   2.254       .  S
In664       O676   2.246       .  S
C665        O671   1.266       .  A
C665        O673   1.260       .  A
O666        C674   1.261       .  A
O667        C674   1.258       .  A
C668        O675   1.257       .  A
C668        O669   1.256       .  A
C670        O672   1.256       .  A
C670        O676   1.261       .  A
C670       C1652   1.482       .  S
In677       O679   2.251       .  S
In677       O680   2.247       .  S
In677       O688   2.270       .  S
In677       O682   2.273       .  S
In677       O684   2.263       .  S
In677       O685   2.232       .  S
In677       O686   2.250       .  S
In677       O689   2.266       .  S
C678        O684   1.266       .  A
C678        O686   1.259       .  A
O679        C687   1.261       .  A
O680        C687   1.255       .  A
C681        O688   1.253       .  A
C681        O682   1.255       .  A
C683        O685   1.258       .  A
C683        O689   1.261       .  A
C683        C700   1.462       .  S
C687       C1328   1.469       .  S
In690       O692   2.263       .  S
In690       O693   2.233       .  S
In690       O701   2.264       .  S
In690       O695   2.267       .  S
In690       O697   2.260       .  S
In690       O698   2.242       .  S
In690       O699   2.241       .  S
In690       O702   2.250       .  S
C691        O697   1.265       .  A
C691        O699   1.259       .  A
O692        C700   1.260       .  A
O693        C700   1.259       .  A
C694        O701   1.257       .  A
C694        O695   1.257       .  A
C694        C720   1.470       .  S
C696        O698   1.255       .  A
C696        O702   1.262       .  A
C696       C1556   1.474       .  S
In703       O705   2.258       .  S
In703       O706   2.242       .  S
In703       O714   2.260       .  S
In703       O708   2.264       .  S
In703       O710   2.264       .  S
In703       O711   2.239       .  S
In703       O712   2.263       .  S
In703       O715   2.246       .  S
C704        O710   1.261       .  A
C704        O712   1.258       .  A
O705        C713   1.262       .  A
O706        C713   1.256       .  A
C707        O714   1.260       .  A
C707        O708   1.261       .  A
C709        O711   1.261       .  A
C709        O715   1.261       .  A
C709        C726   1.460       .  S
C713        C977   1.478       .  S
In716       O718   2.250       .  S
In716       O719   2.243       .  S
In716       O727   2.256   1_565  S
In716       O721   2.259   1_565  S
In716       O723   2.256       .  S
In716       O724   2.247       .  S
In716       O725   2.254       .  S
In716       O728   2.252       .  S
C717        O723   1.262       .  A
C717        O725   1.260       .  A
O718        C726   1.259       .  A
O719        C726   1.259       .  A
C720        O727   1.260       .  A
C720        O721   1.260       .  A
C722        O724   1.257       .  A
C722        O728   1.261       .  A
C722       C1268   1.479       .  S
In729       O731   2.252       .  S
In729       O732   2.210       .  S
In729       O740   2.207       .  S
In729       O734   2.274       .  S
In729       O736   2.272       .  S
In729       O737   2.223       .  S
In729       O738   2.220       .  S
In729       O741   2.242       .  S
C730        O736   1.264       .  A
C730        O738   1.256       .  A
C730        C965   1.476       .  S
O731        C739   1.263       .  A
O732        C739   1.261       .  A
C733        O740   1.255       .  A
C733        O734   1.266       .  A
C733        C992   1.486       .  S
C735        O737   1.262       .  A
C735        O741   1.263       .  A
C735        C941   1.473       .  S
C739        C953   1.465       .  S
In742       O744   2.251       .  S
In742       O745   2.202       .  S
In742       O753   2.194       .  S
In742       O747   2.298       .  S
In742       O749   2.281       .  S
In742       O750   2.213       .  S
In742       O751   2.226       .  S
In742       O754   2.264       .  S
C743        O749   1.263       .  A
C743        O751   1.254       .  A
C743        C968   1.478       .  S
O744        C752   1.265       .  A
O745        C752   1.260       .  A
C746        O753   1.250       .  A
C746        O747   1.266       .  A
C746       C1040   1.474       .  S
C748        O750   1.259       .  A
C748        O754   1.264       .  A
C748        C932   1.473       .  S
C752        C917   1.461       .  S
In755       O757   2.246       .  S
In755       O758   2.205       .  S
In755       O766   2.208       .  S
In755       O760   2.272       .  S
In755       O762   2.278       .  S
In755       O763   2.209       .  S
In755       O764   2.209       .  S
In755       O767   2.259       .  S
C756        O762   1.264       .  A
C756        O764   1.257       .  A
C756        C905   1.476       .  S
O757        C765   1.264       .  A
O758        C765   1.262       .  A
C759        O766   1.253       .  A
C759        O760   1.263       .  A
C759       C1016   1.477       .  S
C761        O763   1.259       .  A
C761        O767   1.262       .  A
C761        C956   1.466       .  S
C765        C893   1.468       .  S
In768       O770   2.263       .  S
In768       O771   2.206       .  S
In768       O779   2.230       .  S
In768       O773   2.275       .  S
In768       O775   2.286       .  S
In768       O776   2.209       .  S
In768       O777   2.214       .  S
In768       O780   2.258       .  S
C769        O775   1.263       .  A
C769        O777   1.255       .  A
C769        C908   1.473       .  S
O770        C778   1.264       .  A
O771        C778   1.260       .  A
C772        O779   1.252       .  A
C772        O773   1.261       .  A
C772       C1049   1.484       .  S
C774        O776   1.259       .  A
C774        O780   1.264       .  A
C774        C884   1.471       .  S
C778        C929   1.476       .  S
In781       O783   2.245       .  S
In781       O784   2.220       .  S
In781       O792   2.186       .  S
In781       O786   2.299       .  S
In781       O788   2.240       .  S
In781       O789   2.220       .  S
In781       O790   2.275       .  S
In781       O793   2.247       .  S
C782        O788   1.256       .  A
C782        O790   1.260       .  A
C782        C869   1.473       .  S
O783        C791   1.262       .  A
O784        C791   1.262       .  A
C785        O792   1.252       .  A
C785        O786   1.269       .  A
C785       C1028   1.476       .  S
C787        O789   1.263       .  A
C787        O793   1.264       .  A
C787        C857   1.468       .  S
C791        C881   1.467       .  S
In794       O796   2.272       .  S
In794       O797   2.196       .  S
In794       O805   2.194       .  S
In794       O799   2.273       .  S
In794       O801   2.296       .  S
In794       O802   2.191       .  S
In794       O803   2.176       .  S
In794       O806   2.258       .  S
C795        O801   1.268       .  A
C795        O803   1.257       .  A
C795        C872   1.489       .  S
O796        C804   1.265       .  A
O797        C804   1.256       .  A
C798        O805   1.253       .  A
C798        O799   1.268       .  A
C798        C980   1.463       .  S
C800        O802   1.259       .  A
C800        O806   1.265       .  A
C800        C896   1.466       .  S
C804        C845   1.463       .  S
In807       O809   2.245       .  S
In807       O810   2.220       .  S
In807       O818   2.197       .  S
In807       O812   2.285       .  S
In807       O814   2.290       .  S
In807       O815   2.219       .  S
In807       O816   2.198       .  S
In807       O819   2.254       .  S
C808        O814   1.268       .  A
C808        O816   1.256       .  A
C808        C833   1.477       .  S
O809        C817   1.264       .  A
O810        C817   1.262       .  A
C811        O818   1.256       .  A
C811        O812   1.269       .  A
C811       C1004   1.483       .  S
C813        O815   1.262       .  A
C813        O819   1.264       .  A
C813        C848   1.466       .  S
C817        C944   1.472       .  S
In820       O822   2.252       .  S
In820       O823   2.221       .  S
In820       O831   2.207       .  S
In820       O825   2.294       .  S
In820       O827   2.294       .  S
In820       O828   2.208       .  S
In820       O829   2.201       .  S
In820       O832   2.255       .  S
C821        O827   1.267       .  A
C821        O829   1.255       .  A
C821        C836   1.476       .  S
O822        C830   1.262       .  A
O823        C830   1.260       .  A
C824        O831   1.251       .  A
C824        O825   1.265       .  A
C824       C1064   1.474       .  S
C826        O828   1.262       .  A
C826        O832   1.267       .  A
C826        C920   1.472       .  S
C830        C860   1.465       .  S
C833        C834   1.402       .  A
C833        C838   1.415       .  A
C834        C835   1.394       .  A
C834        H843   1.084       .  S
C835        C836   1.412       .  A
C835        S839   1.806       .  S
C836        C837   1.405       .  A
C837        C838   1.408       .  A
C837        H844   1.084       .  S
C838        S840   1.802       .  S
S839        H842   1.407       .  S
S840        H841   1.406       .  S
C845        C846   1.402       .  A
C845        C850   1.410       .  A
C846        C847   1.402       .  A
C846        H855   1.084       .  S
C847        C848   1.412       .  A
C847        S851   1.803       .  S
C848        C849   1.398       .  A
C849        C850   1.393       .  A
C849        H856   1.083       .  S
C850        S852   1.805       .  S
S851        H854   1.405       .  S
S852        H853   1.405       .  S
C857        C858   1.401       .  A
C857        C862   1.407       .  A
C858        C859   1.398       .  A
C858        H867   1.081       .  S
C859        C860   1.412       .  A
C859        S863   1.802       .  S
C860        C861   1.401       .  A
C861        C862   1.399       .  A
C861        H868   1.083       .  S
C862        S864   1.805       .  S
S863        H866   1.403       .  S
S864        H865   1.407       .  S
C869        C870   1.405       .  A
C869        C874   1.407       .  A
C870        C871   1.414       .  A
C870        H879   1.083       .  S
C871        C872   1.420       .  A
C871        S875   1.798       .  S
C872        C873   1.403       .  A
C873        C874   1.383       .  A
C873        H880   1.084       .  S
C874        S876   1.801       .  S
S875        H878   1.407       .  S
S876        H877   1.401       .  S
C881        C882   1.398       .  A
C881        C886   1.412       .  A
C882        C883   1.392       .  A
C882        H891   1.084       .  S
C883        C884   1.414       .  A
C883        S887   1.805       .  S
C884        C885   1.403       .  A
C885        C886   1.402       .  A
C885        H892   1.084       .  S
C886        S888   1.800       .  S
S887        H890   1.408       .  S
S888        H889   1.405       .  S
C893        C894   1.401       .  A
C893        C898   1.413       .  A
C894        C895   1.389       .  A
C894        H903   1.084       .  S
C895        C896   1.410       .  A
C895        S899   1.806       .  S
C896        C897   1.404       .  A
C897        C898   1.403       .  A
C897        H904   1.084       .  S
C898        S900   1.802       .  S
S899        H902   1.408       .  S
S900        H901   1.407       .  S
C905        C906   1.401       .  A
C905        C910   1.414       .  A
C906        C907   1.394       .  A
C906        H915   1.084       .  S
C907        C908   1.410       .  A
C907        S911   1.804       .  S
C908        C909   1.404       .  A
C909        C910   1.406       .  A
C909        H916   1.084       .  S
C910        S912   1.799       .  S
S911        H914   1.407       .  S
S912        H913   1.406       .  S
C917        C918   1.396       .  A
C917        C922   1.412       .  A
C918        C919   1.389       .  A
C918        H927   1.085       .  S
C919        C920   1.413       .  A
C919        S923   1.799       .  S
C920        C921   1.404       .  A
C921        C922   1.404       .  A
C921        H928   1.084       .  S
C922        S924   1.802       .  S
S923        H926   1.405       .  S
S924        H925   1.403       .  S
C929        C930   1.401       .  A
C929        C934   1.415       .  A
C930        C931   1.390       .  A
C930        H939   1.084       .  S
C931        C932   1.413       .  A
C931        S935   1.804       .  S
C932        C933   1.403       .  A
C933        C934   1.404       .  A
C933        H940   1.084       .  S
C934        S936   1.797       .  S
S935        H938   1.404       .  S
S936        H937   1.407       .  S
C941        C942   1.404       .  A
C941        C946   1.411       .  A
C942        C943   1.399       .  A
C942        H951   1.084       .  S
C943        C944   1.413       .  A
C943        S947   1.803       .  S
C944        C945   1.402       .  A
C945        C946   1.396       .  A
C945        H952   1.084       .  S
C946        S948   1.803       .  S
S947        H950   1.407       .  S
S948        H949   1.408       .  S
C953        C954   1.400       .  A
C953        C958   1.412       .  A
C954        C955   1.393       .  A
C954        H963   1.084       .  S
C955        C956   1.409       .  A
C955        S959   1.805       .  S
C956        C957   1.403       .  A
C957        C958   1.401       .  A
C957        H964   1.084       .  S
C958        S960   1.802       .  S
S959        H962   1.408       .  S
S960        H961   1.406       .  S
C965        C966   1.401       .  A
C965        C970   1.413       .  A
C966        C967   1.400       .  A
C966        H975   1.084       .  S
C967        C968   1.415       .  A
C967        S971   1.804       .  S
C968        C969   1.403       .  A
C969        C970   1.401       .  A
C969        H976   1.084       .  S
C970        S972   1.802       .  S
S971        H974   1.407       .  S
S972        H973   1.407       .  S
C977        C978   1.406       .  A
C977        C982   1.414       .  A
C978        C979   1.398       .  A
C978        H987   1.084       .  S
C979        C980   1.407       .  A
C979        S983   1.802       .  S
C980        C981   1.401       .  A
C981        C982   1.399       .  A
C981        H988   1.084       .  S
C982        S984   1.802       .  S
S983        H986   1.406       .  S
S984        H985   1.407       .  S
C989        C990   1.407       .  A
C989        C994   1.413       .  A
C990        C991   1.403       .  A
C990        H999   1.084       .  S
C991        C992   1.413       .  A
C991        S995   1.796       .  S
C992        C993   1.407       .  A
C993        C994   1.396       .  A
C993       H1000   1.084       .  S
C994        S996   1.803       .  S
S995        H998   1.407       .  S
S996        H997   1.408       .  S
C1001      C1002   1.397       .  A
C1001      C1006   1.418       .  A
C1002      C1003   1.391       .  A
C1002      H1011   1.084       .  S
C1003      C1004   1.418       .  A
C1003      S1007   1.803       .  S
C1004      C1005   1.404       .  A
C1005      C1006   1.407       .  A
C1005      H1012   1.084       .  S
C1006      S1008   1.800       .  S
S1007      H1010   1.401       .  S
S1008      H1009   1.407       .  S
C1013      C1014   1.406       .  A
C1013      C1018   1.414       .  A
C1014      C1015   1.401       .  A
C1014      H1023   1.084       .  S
C1015      C1016   1.413       .  A
C1015      S1019   1.799       .  S
C1016      C1017   1.404       .  A
C1017      C1018   1.394       .  A
C1017      H1024   1.084       .  S
C1018      S1020   1.801       .  S
S1019      H1022   1.407       .  S
S1020      H1021   1.408       .  S
C1025      C1026   1.398       .  A
C1025      C1030   1.420       .  A
C1026      C1027   1.389       .  A
C1026      H1035   1.084       .  S
C1027      C1028   1.414       .  A
C1027      S1031   1.801       .  S
C1028      C1029   1.402       .  A
C1029      C1030   1.408       .  A
C1029      H1036   1.083       .  S
C1030      S1032   1.800       .  S
S1031      H1034   1.406       .  S
S1032      H1033   1.407       .  S
C1037      C1038   1.401       .  A
C1037      C1042   1.418       .  A
C1038      C1039   1.394       .  A
C1038      H1047   1.084       .  S
C1039      C1040   1.413       .  A
C1039      S1043   1.806       .  S
C1040      C1041   1.402       .  A
C1041      C1042   1.405       .  A
C1041      H1048   1.084       .  S
C1042      S1044   1.801       .  S
S1043      H1046   1.407       .  S
S1044      H1045   1.407       .  S
C1049      C1050   1.405       .  A
C1049      C1054   1.417       .  A
C1050      C1051   1.402       .  A
C1050      H1059   1.083       .  S
C1051      C1052   1.414       .  A
C1051      S1055   1.802       .  S
C1052      C1053   1.402       .  A
C1053      C1054   1.398       .  A
C1053      H1060   1.084       .  S
C1054      S1056   1.803       .  S
S1055      H1058   1.407       .  S
S1056      H1057   1.408       .  S
C1061      C1062   1.398       .  A
C1061      C1066   1.421       .  A
C1062      C1063   1.389       .  A
C1062      H1071   1.084       .  S
C1063      C1064   1.416       .  A
C1063      S1067   1.807       .  S
C1064      C1065   1.402       .  A
C1065      C1066   1.408       .  A
C1065      H1072   1.084       .  S
C1066      S1068   1.802       .  S
S1067      H1070   1.402       .  S
S1068      H1069   1.406       .  S
C1073      C1074   1.401       .  A
C1073      C1078   1.408       .  A
C1074      C1075   1.400       .  A
C1074      H1083   1.084       .  S
C1075      C1076   1.414       .  A
C1075      S1079   1.802   1_655  S
C1076      C1077   1.404       .  A
C1077      C1078   1.396       .  A
C1077      H1084   1.084       .  S
C1078      S1080   1.804       .  S
S1079      H1082   1.407       .  S
S1080      H1081   1.407       .  S
C1085      C1086   1.402       .  A
C1085      C1090   1.413       .  A
C1086      C1087   1.404       .  A
C1086      H1095   1.084       .  S
C1087      C1088   1.416       .  A
C1087      S1091   1.803       .  S
C1088      C1089   1.398       .  A
C1089      C1090   1.392       .  A
C1089      H1096   1.084   1_655  S
C1090      S1092   1.804   1_655  S
S1091      H1094   1.407       .  S
S1092      H1093   1.407       .  S
C1097      C1098   1.406       .  A
C1097      C1102   1.414       .  A
C1098      C1099   1.409       .  A
C1098      H1107   1.083       .  S
C1099      C1100   1.413       .  A
C1099      S1103   1.798       .  S
C1100      C1101   1.399       .  A
C1101      C1102   1.389       .  A
C1101      H1108   1.085       .  S
C1102      S1104   1.805       .  S
S1103      H1106   1.405       .  S
S1104      H1105   1.404       .  S
C1109      C1110   1.402       .  A
C1109      C1114   1.413       .  A
C1110      C1111   1.397       .  A
C1110      H1119   1.084       .  S
C1111      C1112   1.413       .  A
C1111      S1115   1.803       .  S
C1112      C1113   1.405       .  A
C1113      C1114   1.400       .  A
C1113      H1120   1.084       .  S
C1114      S1116   1.806       .  S
S1115      H1118   1.407       .  S
S1116      H1117   1.401       .  S
C1121      C1122   1.401       .  A
C1121      C1126   1.413       .  A
C1122      C1123   1.391       .  A
C1122      H1131   1.084       .  S
C1123      C1124   1.408       .  A
C1123      S1127   1.805       .  S
C1124      C1125   1.402       .  A
C1125      C1126   1.401       .  A
C1125      H1132   1.084       .  S
C1126      S1128   1.803       .  S
S1127      H1130   1.406       .  S
S1128      H1129   1.407       .  S
C1133      C1134   1.405       .  A
C1133      C1138   1.422       .  A
C1134      C1135   1.403       .  A
C1134      H1143   1.084       .  S
C1135      C1136   1.417       .  A
C1135      S1139   1.803       .  S
C1136      C1137   1.397       .  A
C1137      C1138   1.392       .  A
C1137      H1144   1.084       .  S
C1138      S1140   1.802       .  S
S1139      H1142   1.407       .  S
S1140      H1141   1.402       .  S
C1145      C1146   1.400       .  A
C1145      C1150   1.410       .  A
C1146      C1147   1.394       .  A
C1146      H1155   1.083       .  S
C1147      C1148   1.409       .  A
C1147      S1151   1.804       .  S
C1148      C1149   1.402       .  A
C1149      C1150   1.401       .  A
C1149      H1156   1.084       .  S
C1150      S1152   1.802       .  S
S1151      H1154   1.406       .  S
S1152      H1153   1.405       .  S
C1157      C1158   1.403       .  A
C1157      C1162   1.409       .  A
C1158      C1159   1.403       .  A
C1158      H1167   1.084       .  S
C1159      C1160   1.413       .  A
C1159      S1163   1.800       .  S
C1160      C1161   1.402       .  A
C1161      C1162   1.397       .  A
C1161      H1168   1.084       .  S
C1162      S1164   1.804       .  S
S1163      H1166   1.405       .  S
S1164      H1165   1.406       .  S
C1169      C1170   1.402       .  A
C1169      C1174   1.408       .  A
C1170      C1171   1.401       .  A
C1170      H1179   1.084       .  S
C1171      C1172   1.416       .  A
C1171      S1175   1.801       .  S
C1172      C1173   1.404       .  A
C1173      C1174   1.394       .  A
C1173      H1180   1.084       .  S
C1174      S1176   1.803       .  S
S1175      H1178   1.407       .  S
S1176      H1177   1.407       .  S
C1181      C1182   1.401       .  A
C1181      C1186   1.411       .  A
C1182      C1183   1.394   1_565  A
C1182      H1191   1.084       .  S
C1183      C1184   1.409       .  A
C1183      S1187   1.804       .  S
C1184      C1185   1.404       .  A
C1185      C1186   1.400   1_545  A
C1185      H1192   1.084       .  S
C1186      S1188   1.802       .  S
S1187      H1190   1.408       .  S
S1188      H1189   1.405       .  S
C1193      C1194   1.399       .  A
C1193      C1198   1.409       .  A
C1194      C1195   1.397       .  A
C1194      H1203   1.084       .  S
C1195      C1196   1.417       .  A
C1195      S1199   1.800       .  S
C1196      C1197   1.407       .  A
C1197      C1198   1.400       .  A
C1197      H1204   1.083       .  S
C1198      S1200   1.803       .  S
S1199      H1202   1.408       .  S
S1200      H1201   1.405       .  S
C1205      C1206   1.403       .  A
C1205      C1210   1.408       .  A
C1206      C1207   1.400   1_565  A
C1206      H1215   1.079       .  S
C1207      C1208   1.409       .  A
C1207      S1211   1.804       .  S
C1208      C1209   1.399       .  A
C1209      C1210   1.393   1_545  A
C1209      H1216   1.080       .  S
C1210      S1212   1.804       .  S
S1211      H1214   1.405       .  S
S1212      H1213   1.406       .  S
C1217      C1218   1.407       .  A
C1217      C1222   1.412       .  A
C1218      C1219   1.410       .  A
C1218      H1227   1.083       .  S
C1219      C1220   1.413       .  A
C1219      S1223   1.802       .  S
C1220      C1221   1.399       .  A
C1221      C1222   1.387       .  A
C1221      H1228   1.086       .  S
C1222      S1224   1.803       .  S
S1223      H1226   1.404       .  S
S1224      H1225   1.405       .  S
C1229      C1230   1.401       .  A
C1229      C1234   1.411       .  A
C1230      C1231   1.404       .  A
C1230      H1239   1.084       .  S
C1231      C1232   1.417       .  A
C1231      S1235   1.803       .  S
C1232      C1233   1.399       .  A
C1233      C1234   1.393       .  A
C1233      H1240   1.084   1_565  S
C1234      S1236   1.802   1_565  S
S1235      H1238   1.407       .  S
S1236      H1237   1.406       .  S
C1241      C1242   1.402       .  A
C1241      C1246   1.410       .  A
C1242      C1243   1.401       .  A
C1242      H1251   1.084       .  S
C1243      C1244   1.410   1_655  A
C1243      S1247   1.804   1_655  S
C1244      C1245   1.400       .  A
C1245      C1246   1.396   1_455  A
C1245      H1252   1.084       .  S
C1246      S1248   1.805       .  S
S1247      H1250   1.405       .  S
S1248      H1249   1.407       .  S
C1253      C1254   1.401       .  A
C1253      C1258   1.414       .  A
C1254      C1255   1.390       .  A
C1254      H1263   1.084       .  S
C1255      C1256   1.411       .  A
C1255      S1259   1.806       .  S
C1256      C1257   1.403       .  A
C1257      C1258   1.403       .  A
C1257      H1264   1.084       .  S
C1258      S1260   1.798       .  S
S1259      H1262   1.405       .  S
S1260      H1261   1.406       .  S
C1265      C1266   1.399       .  A
C1265      C1270   1.410       .  A
C1266      C1267   1.401       .  A
C1266      H1275   1.084       .  S
C1267      C1268   1.417       .  A
C1267      S1271   1.802       .  S
C1268      C1269   1.403       .  A
C1269      C1270   1.397       .  A
C1269      H1276   1.084   1_565  S
C1270      S1272   1.804   1_565  S
S1271      H1274   1.407       .  S
S1272      H1273   1.407       .  S
C1277      C1278   1.399       .  A
C1277      C1282   1.413       .  A
C1278      C1279   1.388   1_655  A
C1278      H1287   1.085       .  S
C1279      C1280   1.407       .  A
C1279      S1283   1.803       .  S
C1280      C1281   1.403   1_455  A
C1281      C1282   1.405       .  A
C1281      H1288   1.084   1_655  S
C1282      S1284   1.804       .  S
S1283      H1286   1.406       .  S
S1284      H1285   1.405       .  S
C1289      C1290   1.403       .  A
C1289      C1294   1.410       .  A
C1290      C1291   1.401       .  A
C1290      H1299   1.081       .  S
C1291      C1292   1.410       .  A
C1291      S1295   1.803       .  S
C1292      C1293   1.399       .  A
C1293      C1294   1.392       .  A
C1293      H1300   1.085       .  S
C1294      S1296   1.803       .  S
S1295      H1298   1.403       .  S
S1296      H1297   1.405       .  S
C1301      C1302   1.403       .  A
C1301      C1306   1.417       .  A
C1302      C1303   1.389       .  A
C1302      H1311   1.084   1_565  S
C1303      C1304   1.412       .  A
C1303      S1307   1.805   1_565  S
C1304      C1305   1.405       .  A
C1305      C1306   1.411       .  A
C1305      H1312   1.083       .  S
C1306      S1308   1.797       .  S
S1307      H1310   1.403       .  S
S1308      H1309   1.407       .  S
C1313      C1314   1.401       .  A
C1313      C1318   1.409       .  A
C1314      C1315   1.396       .  A
C1314      H1323   1.084       .  S
C1315      C1316   1.412       .  A
C1315      S1319   1.803       .  S
C1316      C1317   1.406       .  A
C1317      C1318   1.401       .  A
C1317      H1324   1.084       .  S
C1318      S1320   1.802       .  S
S1319      H1322   1.407       .  S
S1320      H1321   1.406       .  S
C1325      C1326   1.403       .  A
C1325      C1330   1.410       .  A
C1326      C1327   1.392       .  A
C1326      H1335   1.084       .  S
C1327      C1328   1.408       .  A
C1327      S1331   1.802       .  S
C1328      C1329   1.405       .  A
C1329      C1330   1.402       .  A
C1329      H1336   1.084       .  S
C1330      S1332   1.802       .  S
S1331      H1334   1.406       .  S
S1332      H1333   1.406       .  S
C1337      C1338   1.400       .  A
C1337      C1342   1.414       .  A
C1338      C1339   1.381   1_556  A
C1338      H1347   1.079       .  S
C1339      C1340   1.411       .  A
C1339      S1343   1.807       .  S
C1340      C1341   1.409       .  A
C1341      C1342   1.414   1_554  A
C1341      H1348   1.083       .  S
C1342      S1344   1.798       .  S
S1343      H1346   1.403       .  S
S1344      H1345   1.406       .  S
C1349      C1350   1.401       .  A
C1349      C1354   1.417       .  A
C1350      C1351   1.395       .  A
C1350      H1359   1.084       .  S
C1351      C1352   1.411       .  A
C1351      S1355   1.802       .  S
C1352      C1353   1.400       .  A
C1353      C1354   1.403       .  A
C1353      H1360   1.083       .  S
C1354      S1356   1.802       .  S
S1355      H1358   1.406       .  S
S1356      H1357   1.407       .  S
C1361      C1362   1.400       .  A
C1361      C1366   1.411       .  A
C1362      C1363   1.392       .  A
C1362      H1371   1.084       .  S
C1363      C1364   1.408       .  A
C1363      S1367   1.805       .  S
C1364      C1365   1.404       .  A
C1365      C1366   1.403       .  A
C1365      H1372   1.084       .  S
C1366      S1368   1.803       .  S
S1367      H1370   1.407       .  S
S1368      H1369   1.403       .  S
C1373      C1374   1.409       .  A
C1373      C1378   1.415       .  A
C1374      C1375   1.396       .  A
C1374      H1383   1.083       .  S
C1375      C1376   1.410       .  A
C1375      S1379   1.803       .  S
C1376      C1377   1.406       .  A
C1377      C1378   1.403       .  A
C1377      H1384   1.084       .  S
C1378      S1380   1.799       .  S
S1379      H1382   1.407       .  S
S1380      H1381   1.407       .  S
C1385      C1386   1.404       .  A
C1385      C1390   1.410       .  A
C1386      C1387   1.402       .  A
C1386      H1395   1.084       .  S
C1387      C1388   1.411       .  A
C1387      S1391   1.804       .  S
C1388      C1389   1.398       .  A
C1389      C1390   1.390       .  A
C1389      H1396   1.085       .  S
C1390      S1392   1.803       .  S
S1391      H1394   1.404       .  S
S1392      H1393   1.403       .  S
C1397      C1398   1.404       .  A
C1397      C1402   1.412       .  A
C1398      C1399   1.407   1_556  A
C1398      H1407   1.084       .  S
C1399      C1400   1.415       .  A
C1399      S1403   1.803       .  S
C1400      C1401   1.400       .  A
C1401      C1402   1.396   1_554  A
C1401      H1408   1.084       .  S
C1402      S1404   1.805       .  S
S1403      H1406   1.405       .  S
S1404      H1405   1.407       .  S
C1409      C1410   1.408       .  A
C1409      C1414   1.414       .  A
C1410      C1411   1.396       .  A
C1410      H1419   1.084       .  S
C1411      C1412   1.408       .  A
C1411      S1415   1.803       .  S
C1412      C1413   1.405       .  A
C1413      C1414   1.401       .  A
C1413      H1420   1.084       .  S
C1414      S1416   1.801       .  S
S1415      H1418   1.407       .  S
S1416      H1417   1.408       .  S
C1421      C1422   1.401       .  A
C1421      C1426   1.409       .  A
C1422      C1423   1.397       .  A
C1422      H1431   1.085       .  S
C1423      C1424   1.410       .  A
C1423      S1427   1.805       .  S
C1424      C1425   1.401       .  A
C1425      C1426   1.399       .  A
C1425      H1432   1.084       .  S
C1426      S1428   1.804       .  S
S1427      H1430   1.406       .  S
S1428      H1429   1.406       .  S
C1433      C1434   1.406       .  A
C1433      C1438   1.411       .  A
C1434      C1435   1.398       .  A
C1434      H1443   1.084       .  S
C1435      C1436   1.413       .  A
C1435      S1439   1.802       .  S
C1436      C1437   1.408       .  A
C1437      C1438   1.400       .  A
C1437      H1444   1.082       .  S
C1438      S1440   1.802       .  S
S1439      H1442   1.408       .  S
S1440      H1441   1.407       .  S
C1445      C1446   1.402       .  A
C1445      C1450   1.409       .  A
C1446      C1447   1.400       .  A
C1446      H1455   1.084       .  S
C1447      C1448   1.412       .  A
C1447      S1451   1.802       .  S
C1448      C1449   1.400       .  A
C1449      C1450   1.395       .  A
C1449      H1456   1.084       .  S
C1450      S1452   1.805       .  S
S1451      H1454   1.404       .  S
S1452      H1453   1.407       .  S
C1457      C1458   1.401       .  A
C1457      C1462   1.411       .  A
C1458      C1459   1.399   1_556  A
C1458      H1467   1.084       .  S
C1459      C1460   1.411       .  A
C1459      S1463   1.804       .  S
C1460      C1461   1.402       .  A
C1461      C1462   1.402   1_554  A
C1461      H1468   1.084       .  S
C1462      S1464   1.802       .  S
S1463      H1466   1.405       .  S
S1464      H1465   1.406       .  S
C1469      C1470   1.406       .  A
C1469      C1474   1.408       .  A
C1470      C1471   1.403       .  A
C1470      H1479   1.084       .  S
C1471      C1472   1.413       .  A
C1471      S1475   1.801       .  S
C1472      C1473   1.407       .  A
C1473      C1474   1.395       .  A
C1473      H1480   1.084       .  S
C1474      S1476   1.802       .  S
S1475      H1478   1.403       .  S
S1476      H1477   1.406       .  S
C1481      C1482   1.403       .  A
C1481      C1486   1.410       .  A
C1482      C1483   1.401       .  A
C1482      H1491   1.081       .  S
C1483      C1484   1.410       .  A
C1483      S1487   1.804       .  S
C1484      C1485   1.400       .  A
C1485      C1486   1.395       .  A
C1485      H1492   1.084       .  S
C1486      S1488   1.804       .  S
S1487      H1490   1.405       .  S
S1488      H1489   1.407       .  S
C1493      C1494   1.403       .  A
C1493      C1498   1.411       .  A
C1494      C1495   1.400       .  A
C1494      H1503   1.084       .  S
C1495      C1496   1.412       .  A
C1495      S1499   1.803       .  S
C1496      C1497   1.399       .  A
C1497      C1498   1.394       .  A
C1497      H1504   1.084       .  S
C1498      S1500   1.805       .  S
S1499      H1502   1.404       .  S
S1500      H1501   1.403       .  S
C1505      C1506   1.403       .  A
C1505      C1510   1.420       .  A
C1506      C1507   1.402       .  A
C1506      H1515   1.084       .  S
C1507      C1508   1.417       .  A
C1507      S1511   1.803       .  S
C1508      C1509   1.397       .  A
C1509      C1510   1.394       .  A
C1509      H1516   1.084       .  S
C1510      S1512   1.805       .  S
S1511      H1514   1.407       .  S
S1512      H1513   1.405       .  S
C1517      C1518   1.402       .  A
C1517      C1522   1.407       .  A
C1518      C1519   1.403       .  A
C1518      H1527   1.084       .  S
C1519      C1520   1.413       .  A
C1519      S1523   1.799       .  S
C1520      C1521   1.397       .  A
C1521      C1522   1.388       .  A
C1521      H1528   1.085       .  S
C1522      S1524   1.796       .  S
S1523      H1526   1.405       .  S
S1524      H1525   1.407       .  S
C1529      C1530   1.400       .  A
C1529      C1534   1.413       .  A
C1530      C1531   1.395       .  A
C1530      H1539   1.084       .  S
C1531      C1532   1.410       .  A
C1531      S1535   1.805       .  S
C1532      C1533   1.401       .  A
C1533      C1534   1.400       .  A
C1533      H1540   1.084       .  S
C1534      S1536   1.804       .  S
S1535      H1538   1.407       .  S
S1536      H1537   1.404       .  S
C1541      C1542   1.403       .  A
C1541      C1546   1.413       .  A
C1542      C1543   1.407   1_556  A
C1542      H1551   1.084       .  S
C1543      C1544   1.413       .  A
C1543      S1547   1.800       .  S
C1544      C1545   1.400       .  A
C1545      C1546   1.394   1_554  A
C1545      H1552   1.084       .  S
C1546      S1548   1.807       .  S
S1547      H1550   1.405       .  S
S1548      H1549   1.406       .  S
C1553      C1554   1.408       .  A
C1553      C1558   1.412       .  A
C1554      C1555   1.393       .  A
C1554      H1563   1.084       .  S
C1555      C1556   1.408       .  A
C1555      S1559   1.804       .  S
C1556      C1557   1.407       .  A
C1557      C1558   1.403       .  A
C1557      H1564   1.084       .  S
C1558      S1560   1.797       .  S
S1559      H1562   1.407       .  S
S1560      H1561   1.407       .  S
C1565      C1566   1.404       .  A
C1565      C1570   1.415       .  A
C1566      C1567   1.406       .  A
C1566      H1575   1.083       .  S
C1567      C1568   1.417       .  A
C1567      S1571   1.801       .  S
C1568      C1569   1.399       .  A
C1569      C1570   1.393       .  A
C1569      H1576   1.084       .  S
C1570      S1572   1.803       .  S
S1571      H1574   1.407       .  S
S1572      H1573   1.407       .  S
C1577      C1578   1.399       .  A
C1577      C1582   1.413       .  A
C1578      C1579   1.387   1_554  A
C1578      H1587   1.085       .  S
C1579      C1580   1.415       .  A
C1579      S1583   1.807       .  S
C1580      C1581   1.408       .  A
C1581      C1582   1.411   1_556  A
C1581      H1588   1.083       .  S
C1582      S1584   1.801       .  S
S1583      H1586   1.402       .  S
S1584      H1585   1.405       .  S
C1589      C1590   1.402       .  A
C1589      C1594   1.413       .  A
C1590      C1591   1.396       .  A
C1590      H1599   1.084       .  S
C1591      C1592   1.413       .  A
C1591      S1595   1.799       .  S
C1592      C1593   1.405       .  A
C1593      C1594   1.403       .  A
C1593      H1600   1.084       .  S
C1594      S1596   1.799       .  S
S1595      H1598   1.407       .  S
S1596      H1597   1.406       .  S
C1601      C1602   1.402   1_455  A
C1601      C1606   1.408       .  A
C1602      C1603   1.402       .  A
C1602      H1611   1.084   1_655  S
C1603      C1604   1.413       .  A
C1603      S1607   1.799       .  S
C1604      C1605   1.401       .  A
C1605      C1606   1.391   1_655  A
C1605      H1612   1.084       .  S
C1606      S1608   1.805       .  S
S1607      H1610   1.405       .  S
S1608      H1609   1.408       .  S
C1613      C1614   1.406       .  A
C1613      C1618   1.414       .  A
C1614      C1615   1.395       .  A
C1614      H1623   1.084       .  S
C1615      C1616   1.410       .  A
C1615      S1619   1.804       .  S
C1616      C1617   1.406       .  A
C1617      C1618   1.404       .  A
C1617      H1624   1.084       .  S
C1618      S1620   1.801       .  S
S1619      H1622   1.407       .  S
S1620      H1621   1.407       .  S
C1625      C1626   1.404       .  A
C1625      C1630   1.410       .  A
C1626      C1627   1.401   1_455  A
C1626      H1635   1.084       .  S
C1627      C1628   1.412       .  A
C1627      S1631   1.798       .  S
C1628      C1629   1.401       .  A
C1629      C1630   1.393   1_655  A
C1629      H1636   1.084       .  S
C1630      S1632   1.804       .  S
S1631      H1634   1.406       .  S
S1632      H1633   1.408       .  S
C1637      C1638   1.403       .  A
C1637      C1642   1.411       .  A
C1638      C1639   1.403   1_554  A
C1638      H1647   1.084       .  S
C1639      C1640   1.412       .  A
C1639      S1643   1.799       .  S
C1640      C1641   1.403       .  A
C1641      C1642   1.399   1_556  A
C1641      H1648   1.084       .  S
C1642      S1644   1.804       .  S
S1643      H1646   1.405       .  S
S1644      H1645   1.405       .  S
C1649      C1650   1.403       .  A
C1649      C1654   1.420       .  A
C1650      C1651   1.404       .  A
C1650      H1659   1.083       .  S
C1651      C1652   1.419       .  A
C1651      S1655   1.801       .  S
C1652      C1653   1.399       .  A
C1653      C1654   1.393       .  A
C1653      H1660   1.084       .  S
C1654      S1656   1.804   1_565  S
S1655      H1658   1.407       .  S
S1656      H1657   1.406       .  S
C1661      C1662   1.401       .  A
C1661      C1666   1.410       .  A
C1662      C1663   1.397       .  A
C1662      H1671   1.084       .  S
C1663      C1664   1.411       .  A
C1663      S1667   1.803       .  S
C1664      C1665   1.401       .  A
C1665      C1666   1.399       .  A
C1665      H1672   1.084       .  S
C1666      S1668   1.803       .  S
S1667      H1670   1.405       .  S
S1668      H1669   1.407       .  S
C1673      C1674   1.403       .  A
C1673      C1678   1.416       .  A
C1674      C1675   1.397       .  A
C1674      H1683   1.084       .  S
C1675      C1676   1.412       .  A
C1675      S1679   1.805       .  S
C1676      C1677   1.402       .  A
C1677      C1678   1.402       .  A
C1677      H1684   1.084       .  S
C1678      S1680   1.802   1_565  S
S1679      H1682   1.407       .  S
S1680      H1681   1.407       .  S
C1685      C1686   1.401       .  A
C1685      C1690   1.409       .  A
C1686      C1687   1.399       .  A
C1686      H1695   1.084       .  S
C1687      C1688   1.411       .  A
C1687      S1691   1.804       .  S
C1688      C1689   1.400       .  A
C1689      C1690   1.396       .  A
C1689      H1696   1.084       .  S
C1690      S1692   1.804       .  S
S1691      H1694   1.404       .  S
S1692      H1693   1.406       .  S
C1697      C1698   1.402       .  A
C1697      C1702   1.411       .  A
C1698      C1699   1.402   1_556  A
C1698      H1707   1.084       .  S
C1699      C1700   1.413       .  A
C1699      S1703   1.803       .  S
C1700      C1701   1.402       .  A
C1701      C1702   1.400   1_554  A
C1701      H1708   1.084       .  S
C1702      S1704   1.803   1_565  S
S1703      H1706   1.404       .  S
S1704      H1705   1.407   1_545  S
C1709      C1710   1.400       .  A
C1709      C1714   1.413       .  A
C1710      C1711   1.402       .  A
C1710      H1719   1.083       .  S
C1711      C1712   1.419       .  A
C1711      S1715   1.802       .  S
C1712      C1713   1.402       .  A
C1713      C1714   1.396       .  A
C1713      H1720   1.084   1_655  S
C1714      S1716   1.805   1_655  S
S1715      H1718   1.408       .  S
S1716      H1717   1.407       .  S
C1721      C1722   1.400       .  A
C1721      C1726   1.410       .  A
C1722      C1723   1.393   1_565  A
C1722      H1731   1.083       .  S
C1723      C1724   1.407       .  A
C1723      S1727   1.805       .  S
C1724      C1725   1.402       .  A
C1725      C1726   1.400   1_545  A
C1725      H1732   1.084       .  S
C1726      S1728   1.804       .  S
S1727      H1730   1.407       .  S
S1728      H1729   1.404       .  S
C1733      C1734   1.399       .  A
C1733      C1738   1.412       .  A
C1734      C1735   1.389       .  A
C1734      H1743   1.084       .  S
C1735      C1736   1.407       .  A
C1735      S1739   1.801       .  S
C1736      C1737   1.403       .  A
C1737      C1738   1.405       .  A
C1737      H1744   1.084       .  S
C1738      S1740   1.803       .  S
S1739      H1742   1.407       .  S
S1740      H1741   1.405       .  S
C1745      C1746   1.402       .  A
C1745      C1750   1.410       .  A
C1746      C1747   1.396       .  A
C1746      H1755   1.084   1_655  S
C1747      C1748   1.413       .  A
C1747      S1751   1.803   1_655  S
C1748      C1749   1.407       .  A
C1749      C1750   1.401       .  A
C1749      H1756   1.083       .  S
C1750      S1752   1.800       .  S
S1751      H1754   1.408       .  S
S1752      H1753   1.405       .  S
C1757      C1758   1.402       .  A
C1757      C1762   1.408       .  A
C1758      C1759   1.401   1_565  A
C1758      H1767   1.084       .  S
C1759      C1760   1.413       .  A
C1759      S1763   1.803       .  S
C1760      C1761   1.401       .  A
C1761      C1762   1.393   1_545  A
C1761      H1768   1.084       .  S
C1762      S1764   1.805       .  S
S1763      H1766   1.406       .  S
S1764      H1765   1.407       .  S
C1769      C1770   1.400       .  A
C1769      C1774   1.414       .  A
C1770      C1771   1.394       .  A
C1770      H1779   1.084       .  S
C1771      C1772   1.410       .  A
C1771      S1775   1.804       .  S
C1772      C1773   1.403       .  A
C1773      C1774   1.401       .  A
C1773      H1780   1.084       .  S
C1774      S1776   1.803       .  S
S1775      H1778   1.406       .  S
S1776      H1777   1.406       .  S
C1781      C1782   1.402       .  A
C1781      C1786   1.415       .  A
C1782      C1783   1.393   1_554  A
C1782      H1791   1.085       .  S
C1783      C1784   1.412       .  A
C1783      S1787   1.805       .  S
C1784      C1785   1.404       .  A
C1785      C1786   1.408   1_556  A
C1785      H1792   1.083       .  S
C1786      S1788   1.799       .  S
S1787      H1790   1.407       .  S
S1788      H1789   1.407       .  S
