geometry optimzed in LAMMPS
_audit_creation_date              2020-11-30 
_audit_creation_method            'lammps2cif' 
_symmetry_space_group_name_H-M    'P1' 
_symmetry_Int_Tables_number       1 
_symmetry_cell_setting            triclinic 
loop_ 
_symmetry_equiv_pos_as_xyz 
  x,y,z 
_cell_length_a                    59.63892247 
_cell_length_b                    59.58203603492204 
_cell_length_c                    72.7628238899645 
_cell_angle_alpha                 89.42801953335544 
_cell_angle_beta                  90.52392593978594 
_cell_angle_gamma                 119.07210689407724 
loop_ 
_atom_site_label 
_atom_site_type_symbol 
_atom_site_fract_x 
_atom_site_fract_y 
_atom_site_fract_z 
_atom_site_charge 
N1          N  0.59653928  0.47240328  0.08717867    -0.26800
N2          N  0.59893360  0.49186530  0.07691446    -0.34600
C3          C  0.62130131  0.51285239  0.08110476     0.01600
C4          C  0.63354287  0.50619152  0.09464700     0.07600
C5          C  0.61725769  0.48041058  0.09813524    -0.05500
H6          H  0.62814259  0.53154428  0.07477568     0.08300
H7          H  0.62004124  0.46845943  0.10817457     0.09500
Cu8        Cu  0.57111295  0.48839435  0.05799804     0.44200
Cu9        Cu  0.56435963  0.43632450  0.08682567     0.42000
Cu10       Cu  0.50865793  0.43054891  0.06271368     0.43900
N11         N  0.54028958  0.47866676  0.04023566    -0.34200
N12         N  0.51751257  0.45804749  0.04213381    -0.28400
C13         C  0.50237318  0.45710467  0.02798522    -0.04500
C14         C  0.51633179  0.47802777  0.01661794     0.07700
C15         C  0.54024572  0.49128421  0.02481320     0.01500
H16         H  0.48287758  0.44193686  0.02589621     0.09100
H17         H  0.55656595  0.50865507  0.01983051     0.08200
N18         N  0.50755281  0.40274035  0.08077110    -0.35600
N19         N  0.52838434  0.40415593  0.08838164    -0.27800
C20         C  0.52189591  0.38257182  0.09807335    -0.03000
C21         C  0.49553236  0.36680488  0.09691768     0.05600
C22         C  0.48713394  0.38039106  0.08580081     0.03700
H23         H  0.53551310  0.37873366  0.10544216     0.08800
H24         H  0.46760039  0.37458710  0.08171212     0.07600
N25         N  0.43030720  0.49399387  0.92771454    -0.26800
N26         N  0.42587001  0.47583772  0.93999775    -0.34600
C27         C  0.40260190  0.45559663  0.93674699     0.01600
C28         C  0.39192126  0.46109721  0.92152091     0.07600
C29         C  0.41010566  0.48566268  0.91618991    -0.05500
H30         H  0.39426805  0.43799957  0.94472657     0.08300
H31         H  0.40906578  0.49643523  0.90446770     0.09500
Cu32       Cu  0.45266538  0.47863809  0.95955448     0.44200
Cu33       Cu  0.46427598  0.52867028  0.92660467     0.42000
Cu34       Cu  0.51743313  0.53164866  0.95264595     0.43900
N35         N  0.48369598  0.48559472  0.97635573    -0.34200
N36         N  0.50725921  0.50461194  0.97365107    -0.28400
C37         C  0.52249519  0.50455439  0.98737356    -0.04500
C38         C  0.50785514  0.48456419  0.99927222     0.07700
C39         C  0.48337729  0.47287099  0.99182995     0.01500
H40         H  0.54260189  0.51848074  0.98881253     0.09100
H41         H  0.46642572  0.45674264  0.99747989     0.08200
N42         N  0.52096423  0.56023094  0.93442092    -0.35600
N43         N  0.50110602  0.55982450  0.92592530    -0.27800
C44         C  0.50916252  0.58170084  0.91624562    -0.03000
C45         C  0.53554128  0.59654111  0.91835702     0.05600
C46         C  0.54229341  0.58218518  0.93003562     0.03700
H47         H  0.49664950  0.58632828  0.90813824     0.08800
H48         H  0.56133982  0.58715084  0.93486928     0.07600
O49         O  0.52115145  0.52332792  0.50706984    -0.72400
O50         O  0.49902513  0.45592874  0.53293071    -0.73400
O51         O  0.54482506  0.50374948  0.53136988    -0.62000
O52         O  0.47506111  0.47574256  0.50869606    -0.70400
O53         O  0.48815369  0.46298016  0.48443257    -0.70000
O54         O  0.55738806  0.48913749  0.50785106    -0.61200
O55         O  0.51086474  0.44200678  0.50863961    -0.73800
O56         O  0.53474981  0.50985240  0.48351554    -0.72500
Cu57       Cu  0.50952321  0.49013752  0.52085588     1.04600
Cu58       Cu  0.52320600  0.47548287  0.49528051     1.04300
C59         C  0.53174550  0.52731470  0.49129828     0.93800
C60         C  0.50150810  0.43834277  0.52480136     0.92900
C61         C  0.56206353  0.50078467  0.52322624     0.85100
C62         C  0.47072471  0.46532500  0.49287516     0.91300
O63         O  0.16574423  0.78776639  0.86172764    -0.72400
O64         O  0.18972822  0.85683870  0.83808924    -0.73400
O65         O  0.14374923  0.80869917  0.83707668    -0.62000
O66         O  0.21192629  0.83561290  0.86283776    -0.70400
O67         O  0.22642744  0.82275348  0.83946779    -0.70000
O68         O  0.15911262  0.79780394  0.81311785    -0.61200
O69         O  0.20561863  0.84537187  0.81477956    -0.73800
O70         O  0.17977385  0.77543089  0.83778861    -0.72500
Cu71       Cu  0.17729948  0.82269538  0.85074720     1.04600
Cu72       Cu  0.19329609  0.80997491  0.82546190     1.04300
C73         C  0.16859074  0.77056318  0.85337718     0.93800
C74         C  0.20154425  0.86207726  0.82275103     0.92900
C75         C  0.14066778  0.79887022  0.82109537     0.85100
C76         C  0.22982550  0.83304239  0.85530075     0.91300
N77         N  0.52611233  0.06507863  0.08998283    -0.26800
N78         N  0.50765322  0.05018032  0.07851745    -0.34600
C79         C  0.48653392  0.05209698  0.08207012     0.01600
C80         C  0.49207895  0.06893141  0.09654879     0.07600
C81         C  0.51732929  0.07680621  0.10118048    -0.05500
H82         H  0.46837260  0.04160069  0.07494694     0.08300
H83         H  0.52838628  0.08978712  0.11209640     0.09500
Cu84       Cu  0.51263499  0.02772906  0.05914912     0.44200
Cu85       Cu  0.56176122  0.06743401  0.09068264     0.42000
Cu86       Cu  0.57358976  0.02643002  0.06042165     0.43900
N87         N  0.52331471  0.00919021  0.03999750    -0.34200
N88         N  0.54535122  0.00885373  0.04013442    -0.28400
C89         C  0.54632399  0.99634753  0.02507225    -0.04500
C90         C  0.52381951  0.98842429  0.01510498     0.07700
C91         C  0.50972340  0.99684986  0.02501535     0.01500
H92         H  0.56232514  0.99345501  0.02156117     0.09100
H93         H  0.49113365  0.99467581  0.02142399     0.08200
N94         N  0.59894387  0.04871843  0.08118208    -0.35600
N95         N  0.59466847  0.06425017  0.09166116    -0.27800
C96         C  0.61469739  0.07694435  0.10305984    -0.03000
C97         C  0.63248425  0.06900319  0.09973891     0.05600
C98         C  0.62191295  0.05102640  0.08582607     0.03700
H99         H  0.61620516  0.09096798  0.11303096     0.08800
H100        H  0.63054624  0.04087153  0.07929459     0.07600
N101        N  0.51416901  0.90421189  0.91813358    -0.26800
N102        N  0.53299321  0.92015092  0.92897045    -0.34600
C103        C  0.55469189  0.91997090  0.92435328     0.01600
C104        C  0.54923351  0.90292401  0.91000241     0.07600
C105        C  0.52332581  0.89330923  0.90645391    -0.05500
H106        H  0.57301401  0.93118036  0.93112754     0.08300
H107        H  0.51182826  0.87905612  0.89633699     0.09500
Cu108      Cu  0.52788630  0.94003856  0.95032498     0.44200
Cu109      Cu  0.47696970  0.89822334  0.91945069     0.42000
Cu110      Cu  0.46399824  0.93289351  0.95448925     0.43900
N111        N  0.51693599  0.95532329  0.97173951    -0.34200
N112        N  0.49375788  0.95288693  0.97321019    -0.28400
C113        C  0.49278975  0.96448057  0.98873378    -0.04500
C114        C  0.51639183  0.97451317  0.99750427     0.07700
C115        C  0.53123127  0.96835474  0.98633447     0.01500
H116        H  0.47598056  0.96517958  0.99342950     0.09100
H117        H  0.55091157  0.97284891  0.98867290     0.08200
N118        N  0.43753737  0.91106635  0.93422355    -0.35600
N119        N  0.44236539  0.89826921  0.92153950    -0.27800
C120        C  0.42194165  0.88663993  0.91026739    -0.03000
C121        C  0.40326180  0.89234753  0.91608002     0.05600
C122        C  0.41379926  0.90783159  0.93134748     0.03700
H123        H  0.42083783  0.87499495  0.89862185     0.08800
H124        H  0.40500825  0.91644640  0.93956889     0.07600
N125        N  0.95315456  0.48118464  0.10139917    -0.26800
N126        N  0.96024594  0.49669137  0.08696413    -0.34600
C127        C  0.95377009  0.51509230  0.08963462     0.01600
C128        C  0.94196222  0.51086623  0.10656051     0.07600
C129        C  0.94196047  0.48925149  0.11365890    -0.05500
H130        H  0.95655474  0.52984578  0.07969685     0.08300
H131        H  0.93379126  0.47966941  0.12655324     0.09500
Cu132      Cu  0.97613955  0.49054252  0.06373871     0.44200
Cu133      Cu  0.95654253  0.44834751  0.10289872     0.42000
Cu134      Cu  0.97736638  0.42983017  0.06208369     0.43900
N135        N  0.98890239  0.47872412  0.04145787    -0.34200
N136        N  0.98910727  0.45664501  0.04069567    -0.28400
C137        C  0.99814147  0.45489952  0.02420484    -0.04500
C138        C  0.00392741  0.47693225  0.01419739     0.07700
C139        C  0.99785594  0.49160673  0.02555484     0.01500
H140        H  0.00053020  0.43885998  0.01990671     0.09100
H141        H  0.99979221  0.51027832  0.02253154     0.08200
N142        N  0.96395636  0.40675002  0.08551019    -0.35600
N143        N  0.95670913  0.41394679  0.10043288    -0.27800
C144        C  0.94742811  0.39457898  0.11269810    -0.03000
C145        C  0.94873384  0.37404562  0.10517820     0.05600
C146        C  0.95945101  0.38245708  0.08794443     0.03700
H147        H  0.93936855  0.39507298  0.12584970     0.08800
H148        H  0.96260735  0.37134447  0.07763672     0.07600
N149        N  0.08014336  0.48101546  0.91509454    -0.26800
N150        N  0.06709272  0.46393505  0.92798548    -0.34600
C151        C  0.07011481  0.44317374  0.92591224     0.01600
C152        C  0.08569598  0.44736716  0.91090391     0.07600
C153        C  0.09171430  0.47149762  0.90433683    -0.05500
H154        H  0.06204031  0.42652786  0.93489359     0.08300
H155        H  0.10423254  0.48169336  0.89296922     0.09500
Cu156      Cu  0.04737151  0.47057543  0.94844021     0.44200
Cu157      Cu  0.08288995  0.51707078  0.91387779     0.42000
Cu158      Cu  0.05289781  0.53410051  0.95075035     0.43900
N159        N  0.03218076  0.48219446  0.96926223    -0.34200
N160        N  0.03410037  0.50521333  0.97034786    -0.28400
C161        C  0.02363895  0.50671513  0.98630701    -0.04500
C162        C  0.01495786  0.48359957  0.99564725     0.07700
C163        C  0.02061922  0.46853622  0.98440642     0.01500
H164        H  0.02322573  0.52366922  0.99103578     0.09100
H165        H  0.01736223  0.44932987  0.98724967     0.08200
N166        N  0.07408441  0.55905131  0.92951291    -0.35600
N167        N  0.08456315  0.55255224  0.91608261    -0.27800
C168        C  0.09693329  0.57272645  0.90468679    -0.03000
C169        C  0.09442659  0.59313405  0.91124318     0.05600
C170        C  0.07974795  0.58369408  0.92702743     0.03700
H171        H  0.10709533  0.57253232  0.89250456     0.08800
H172        H  0.07396640  0.59409457  0.93621183     0.07600
O173        O  0.86084335  0.19131848  0.17593744    -0.72400
O174        O  0.83315052  0.12210645  0.20024757    -0.73400
O175        O  0.88125264  0.16831828  0.19983044    -0.62000
O176        O  0.81258509  0.14555735  0.17600572    -0.70400
O177        O  0.82427341  0.13092222  0.15235583    -0.70000
O178        O  0.89295203  0.15382137  0.17589896    -0.61200
O179        O  0.84500578  0.10794700  0.17620255    -0.73800
O180        O  0.87251887  0.17694312  0.15185137    -0.72500
Cu181      Cu  0.84646007  0.15724984  0.18884080     1.04600
Cu182      Cu  0.85905025  0.14189353  0.16325303     1.04300
C183        C  0.87152977  0.19518674  0.16022256     0.93800
C184        C  0.83482174  0.10406271  0.19209530     0.92900
C185        C  0.89821724  0.16514797  0.19142720     0.85100
C186        C  0.80733507  0.13454650  0.16035821     0.91300
N187        N  0.19591804  0.73073957  0.41834680    -0.26800
N188        N  0.17876302  0.72490618  0.40504267    -0.34600
C189        C  0.15847556  0.70170896  0.40872329     0.01600
C190        C  0.16322380  0.69253698  0.42508890     0.07600
C191        C  0.18713205  0.71151497  0.43075715    -0.05500
H192        H  0.14165595  0.69209658  0.40004401     0.08300
H193        H  0.19738298  0.71140395  0.44307068     0.09500
Cu194      Cu  0.18453237  0.74916276  0.38254546     0.44200
Cu195      Cu  0.23058055  0.76454261  0.41920924     0.42000
Cu196      Cu  0.24707912  0.80811741  0.38087707     0.43900
N197        N  0.19557248  0.77723868  0.36198792    -0.34200
N198        N  0.21820017  0.79831802  0.36139812    -0.28400
C199        C  0.21879258  0.81263618  0.34680739    -0.04500
C200        C  0.19546722  0.80005811  0.33775281     0.07700
C201        C  0.18121941  0.77766446  0.34772108     0.01500
H202        H  0.23488520  0.83110279  0.34328722     0.09100
H203        H  0.16169686  0.76296651  0.34501319     0.08200
N204        N  0.27081961  0.81505653  0.40358332    -0.35600
N205        N  0.26431678  0.79920652  0.41780281    -0.27800
C206        C  0.28280061  0.80935513  0.43068147    -0.03000
C207        C  0.30207869  0.83270678  0.42426925     0.05600
C208        C  0.29379642  0.83568445  0.40699212     0.03700
H209        H  0.28209301  0.80047363  0.44385855     0.08800
H210        H  0.30369649  0.85165740  0.39759442     0.07600
N211        N  0.11450305  0.81888061  0.24591278    -0.26800
N212        N  0.10945109  0.80171697  0.25913224    -0.34600
C213        C  0.08590808  0.78166295  0.25640119     0.01600
C214        C  0.07552464  0.78602717  0.24052831     0.07600
C215        C  0.09435450  0.80987695  0.23424189    -0.05500
H216        H  0.07689219  0.76521983  0.26551045     0.08300
H217        H  0.09347484  0.82002896  0.22209116     0.09500
Cu218      Cu  0.13483307  0.80551193  0.28012766     0.44200
Cu219      Cu  0.14804547  0.85447531  0.24511966     0.42000
Cu220      Cu  0.19587519  0.86335447  0.27985680     0.43900
N221        N  0.16406106  0.81233925  0.29869508    -0.34200
N222        N  0.18659919  0.83346557  0.29844275    -0.28400
C223        C  0.20127447  0.83223560  0.31214632    -0.04500
C224        C  0.18728637  0.80922083  0.32147431     0.07700
C225        C  0.16378476  0.79708006  0.31256301     0.01500
H226        H  0.22057758  0.84715052  0.31520925     0.09100
H227        H  0.14760012  0.77862142  0.31596707     0.08200
N228        N  0.19984707  0.89174323  0.26128476    -0.35600
N229        N  0.18236767  0.88882829  0.24882188    -0.27800
C230        C  0.19059525  0.91113878  0.23955542    -0.03000
C231        C  0.21447527  0.92893231  0.24642263     0.05600
C232        C  0.21964678  0.91580609  0.26016634     0.03700
H233        H  0.17990675  0.91422367  0.22865947     0.08800
H234        H  0.23669791  0.92313631  0.26867594     0.07600
N235        N  0.18705068  0.39195443  0.42600604    -0.26800
N236        N  0.16934249  0.37767285  0.41386789    -0.34600
C237        C  0.14774272  0.37868849  0.41731984     0.01600
C238        C  0.15219511  0.39458014  0.43227617     0.07600
C239        C  0.17736680  0.40266183  0.43736250    -0.05500
H240        H  0.13018955  0.36877167  0.40940977     0.08300
H241        H  0.18805813  0.41572472  0.44833900     0.09500
Cu242      Cu  0.17625457  0.35905560  0.39256418     0.44200
Cu243      Cu  0.22348091  0.39624108  0.42676737     0.42000
Cu244      Cu  0.24102308  0.36725602  0.39048193     0.43900
N245        N  0.18934356  0.34516937  0.37159366    -0.34200
N246        N  0.21281567  0.34821234  0.37078129    -0.28400
C247        C  0.21512406  0.33750279  0.35523166    -0.04500
C248        C  0.19204820  0.32733222  0.34581515     0.07700
C249        C  0.17614088  0.33250938  0.35657132     0.01500
H250        H  0.23242616  0.33738603  0.35103312     0.09100
H251        H  0.15649612  0.32768887  0.35364075     0.08200
N252        N  0.26513956  0.38679736  0.41226539    -0.35600
N253        N  0.25840435  0.39708501  0.42565469    -0.27800
C254        C  0.27766366  0.40777210  0.43791339    -0.03000
C255        C  0.29767905  0.40426425  0.43191622     0.05600
C256        C  0.28905048  0.39087280  0.41558405     0.03700
H257        H  0.27702672  0.41723950  0.45035127     0.08800
H258        H  0.29941360  0.38464837  0.40672183     0.07600
N259        N  0.19045509  0.25205978  0.24591529    -0.26800
N260        N  0.20744523  0.26439701  0.25901878    -0.34600
C261        C  0.22821172  0.26153232  0.25644088     0.01600
C262        C  0.22408657  0.24662903  0.24100085     0.07600
C263        C  0.19999215  0.24106169  0.23464358    -0.05500
H264        H  0.24460816  0.26878680  0.26560640     0.08300
H265        H  0.18976987  0.22915669  0.22303165     0.09500
Cu266      Cu  0.20078758  0.28243549  0.28083452     0.44200
Cu267      Cu  0.15403026  0.24835363  0.24490053     0.42000
Cu268      Cu  0.13722021  0.27566408  0.28292625     0.43900
N269        N  0.18841253  0.29656037  0.30207949    -0.34200
N270        N  0.16514036  0.29399402  0.30283585    -0.28400
C271        C  0.16288901  0.30457681  0.31845451    -0.04500
C272        C  0.18584682  0.31425177  0.32797650     0.07700
C273        C  0.20161678  0.30886682  0.31721103     0.01500
H274        H  0.14573332  0.30502581  0.32258973     0.09100
H275        H  0.22115172  0.31335065  0.32018958     0.08200
N276        N  0.11200566  0.25530974  0.26195179    -0.35600
N277        N  0.11806548  0.24519321  0.24805151    -0.27800
C278        C  0.09739268  0.23279843  0.23709723    -0.03000
C279        C  0.07741809  0.23532215  0.24445603     0.05600
C280        C  0.08737223  0.24971561  0.26019862     0.03700
H281        H  0.09695663  0.22277436  0.22467028     0.08800
H282        H  0.07738224  0.25548943  0.26977104     0.07600
O283        O  0.36409491  0.12848812  0.15463035    -0.72400
O284        O  0.32471771  0.16008726  0.17636055    -0.73400
O285        O  0.36678248  0.17718871  0.15195200    -0.62000
O286        O  0.32207816  0.11131168  0.17929634    -0.70400
O287        O  0.34959257  0.12468216  0.20267361    -0.70000
O288        O  0.39319040  0.19119983  0.17598450    -0.61200
O289        O  0.35114646  0.17322062  0.20034823    -0.73800
O290        O  0.39164242  0.14281637  0.17795586    -0.72500
Cu291      Cu  0.34345334  0.14374270  0.16475598     1.04600
Cu292      Cu  0.37231736  0.15841416  0.19008602     1.04300
C293        C  0.38431961  0.13101238  0.16264601     0.93800
C294        C  0.33174731  0.17179794  0.19169512     0.92900
C295        C  0.38689151  0.19464120  0.15980585     0.85100
C296        C  0.32889272  0.10755026  0.19523930     0.91300
O297        O  0.98486193  0.49089068  0.50570748    -0.72400
O298        O  0.02226349  0.45725554  0.48351609    -0.73400
O299        O  0.97930875  0.44064284  0.50722251    -0.62000
O300        O  0.02771247  0.50735975  0.48216482    -0.70400
O301        O  0.05321831  0.51891665  0.50663125    -0.70000
O302        O  0.00561439  0.45119518  0.53099005    -0.61200
O303        O  0.04893135  0.46948487  0.50742861    -0.73800
O304        O  0.01030175  0.50157633  0.53014840    -0.72500
Cu305      Cu  0.00260135  0.47360234  0.49384521     1.04600
Cu306      Cu  0.03033684  0.48560015  0.51968654     1.04300
C307        C  0.99188548  0.50195699  0.52128209     0.93800
C308        C  0.04183545  0.45860940  0.49181203     0.92900
C309        C  0.98486247  0.43499065  0.52300224     0.85100
C310        C  0.04804240  0.52375197  0.49046582     0.91300
N311        N  0.85104329  0.58099921  0.57902979    -0.26800
N312        N  0.86854538  0.59341085  0.59181375    -0.34600
C313        C  0.88925007  0.59063546  0.58857227     0.01600
C314        C  0.88457882  0.57579339  0.57297728     0.07600
C315        C  0.86016762  0.57012038  0.56729288    -0.05500
H316        H  0.90625710  0.59841575  0.59715505     0.08300
H317        H  0.84966969  0.55869896  0.55556575     0.09500
Cu318      Cu  0.86316199  0.61323346  0.61318269     0.44200
Cu319      Cu  0.81511150  0.57844391  0.57848806     0.42000
Cu320      Cu  0.80182319  0.61247085  0.61392432     0.43900
N321        N  0.85324181  0.63209888  0.63273723    -0.34200
N322        N  0.83098677  0.63194073  0.63291982    -0.28400
C323        C  0.83045494  0.64547698  0.64744546    -0.04500
C324        C  0.85345172  0.65457347  0.65687148     0.07700
C325        C  0.86744787  0.64575783  0.64715486     0.01500
H326        H  0.81431696  0.64810472  0.65103241     0.09100
H327        H  0.88640093  0.64869268  0.65045858     0.08200
N328        N  0.77536204  0.59032448  0.59399319    -0.35600
N329        N  0.78024695  0.57786406  0.58108157    -0.27800
C330        C  0.75924523  0.56515791  0.57049420    -0.03000
C331        C  0.74020633  0.56984606  0.57703970     0.05600
C332        C  0.75109708  0.58587085  0.59195846     0.03700
H333        H  0.75788213  0.55323438  0.55896006     0.08800
H334        H  0.74209154  0.59380489  0.60064092     0.07600
N335        N  0.85352441  0.71864513  0.76152483    -0.26800
N336        N  0.83940879  0.71374348  0.74644503    -0.34600
C337        C  0.81972006  0.71815454  0.74973464     0.01600
C338        C  0.82138322  0.72612387  0.76778232     0.07600
C339        C  0.84303613  0.72605151  0.77482283    -0.05500
H340        H  0.80560443  0.71635067  0.73955954     0.08300
H341        H  0.85093856  0.73149174  0.78852451     0.09500
Cu342      Cu  0.84776134  0.70172144  0.72191874     0.44200
Cu343      Cu  0.88796887  0.71785391  0.76288871     0.42000
Cu344      Cu  0.90886912  0.70292058  0.72047264     0.43900
N345        N  0.85966944  0.68822572  0.69983765    -0.34200
N346        N  0.88203262  0.68864942  0.69940741    -0.28400
C347        C  0.88347729  0.67732035  0.68390614    -0.04500
C348        C  0.86092302  0.66931351  0.67409718     0.07700
C349        C  0.84627973  0.67659686  0.68457019     0.01500
H350        H  0.89950690  0.67451531  0.68031590     0.09100
H351        H  0.82703287  0.67305521  0.68159757     0.08200
N352        N  0.93183729  0.71638821  0.74369640    -0.35600
N353        N  0.92406737  0.72129914  0.75935835    -0.27800
C354        C  0.94361435  0.73019485  0.77150187    -0.03000
C355        C  0.96475196  0.73102517  0.76305145     0.05600
C356        C  0.95651111  0.72209334  0.74542983     0.03700
H357        H  0.94263117  0.73603644  0.78536681     0.08800
H358        H  0.96779990  0.72044736  0.73450629     0.07600
O359        O  0.64915305  0.82015061  0.83690793    -0.72400
O360        O  0.69070272  0.78971400  0.81643729    -0.73400
O361        O  0.64654534  0.77109341  0.83916284    -0.62000
O362        O  0.69289881  0.83832995  0.81411316    -0.70400
O363        O  0.71846688  0.85070211  0.83858692    -0.70000
O364        O  0.67127526  0.78396053  0.86409645    -0.61200
O365        O  0.71542156  0.80169141  0.84135837    -0.73800
O366        O  0.67456917  0.83307605  0.86140827    -0.72500
Cu367      Cu  0.66892132  0.80433320  0.82581466     1.04600
Cu368      Cu  0.69578482  0.81777262  0.85223797     1.04300
C369        C  0.65551757  0.83174250  0.85233430     0.93800
C370        C  0.70973460  0.79108337  0.82557895     0.92900
C371        C  0.65155532  0.76700416  0.85556882     0.85100
C372        C  0.71304629  0.85507578  0.82235357     0.91300
N373        N  0.83269131  0.22517211  0.59117146    -0.26800
N374        N  0.85140886  0.22883295  0.60272904    -0.34600
C375        C  0.87233570  0.25130655  0.59858246     0.01600
C376        C  0.86649171  0.26239559  0.58377762     0.07600
C377        C  0.84118018  0.24527489  0.57946847    -0.05500
H378        H  0.89039585  0.25917401  0.60594453     0.08300
H379        H  0.82980125  0.24724155  0.56855325     0.09500
Cu380      Cu  0.84740344  0.20315315  0.62382318     0.44200
Cu381      Cu  0.79653178  0.19268689  0.59154922     0.42000
Cu382      Cu  0.78689023  0.14344066  0.62501820     0.43900
N383        N  0.83848999  0.17427481  0.64344809    -0.34200
N384        N  0.81660095  0.15238848  0.64363764    -0.28400
C385        C  0.81690675  0.13778593  0.65776906    -0.04500
C386        C  0.84002247  0.15113159  0.66700675     0.07700
C387        C  0.85322451  0.17420319  0.65756914     0.01500
H388        H  0.80133378  0.11892158  0.66113570     0.09100
H389        H  0.87219632  0.18975026  0.66066323     0.08200
N390        N  0.75955713  0.13946427  0.60553834    -0.35600
N391        N  0.76291131  0.15757533  0.59348581    -0.27800
C392        C  0.74194027  0.14891223  0.58268263    -0.03000
C393        C  0.72455966  0.12409168  0.58811221     0.05600
C394        C  0.73642241  0.11880048  0.60267874     0.03700
H395        H  0.73965853  0.15977405  0.57151774     0.08800
H396        H  0.72904338  0.10099420  0.61036100     0.07600
N397        N  0.86071539  0.06579525  0.75504545    -0.26800
N398        N  0.84231014  0.06098416  0.74292204    -0.34600
C399        C  0.82298130  0.03696517  0.74580882     0.01600
C400        C  0.82954244  0.02613267  0.76045672     0.07600
C401        C  0.85372154  0.04501349  0.76583278    -0.05500
H402        H  0.80508867  0.02832641  0.73821243     0.08300
H403        H  0.86520837  0.04397512  0.77705596     0.09500
Cu404      Cu  0.84423000  0.08809882  0.72366226     0.44200
Cu405      Cu  0.89353447  0.10110841  0.75756171     0.42000
Cu406      Cu  0.89999932  0.15218095  0.72718877     0.43900
N407        N  0.85122964  0.11868683  0.70602372    -0.34200
N408        N  0.87153035  0.14180903  0.70729943    -0.28400
C409        C  0.87062609  0.15682892  0.69369695    -0.04500
C410        C  0.84868672  0.14257089  0.68337520     0.07700
C411        C  0.83682102  0.11849713  0.69159468     0.01500
H412        H  0.88494797  0.17666708  0.69148744     0.09100
H413        H  0.81915925  0.10195738  0.68729548     0.08200
N414        N  0.92639272  0.15702156  0.74768300    -0.35600
N415        N  0.92397996  0.13819737  0.75868884    -0.27800
C416        C  0.94437679  0.14704345  0.77002540    -0.03000
C417        C  0.96049526  0.17266832  0.76594410     0.05600
C418        C  0.94846251  0.17839146  0.75173083     0.03700
H419        H  0.94738844  0.13557144  0.78035083     0.08800
H420        H  0.95553263  0.19655436  0.74455897     0.07600
O421        O  0.82119722  0.63649825  0.15216186    -0.72400
O422        O  0.89116944  0.67702582  0.17413955    -0.73400
O423        O  0.86725156  0.63321142  0.15166050    -0.62000
O424        O  0.84557109  0.68039021  0.17518526    -0.70400
O425        O  0.83147021  0.65431701  0.19940236    -0.70000
O426        O  0.85528864  0.60873679  0.17670632    -0.61200
O427        O  0.87847385  0.65286425  0.19934973    -0.73800
O428        O  0.80835847  0.61021121  0.17603101    -0.72500
Cu429      Cu  0.85661845  0.65759705  0.16243320     1.04600
Cu430      Cu  0.84285562  0.63062635  0.18874375     1.04300
C431        C  0.80371545  0.61658111  0.16016673     0.93800
C432        C  0.89598623  0.67146153  0.19014445     0.92900
C433        C  0.86533823  0.61387998  0.16074576     0.85100
C434        C  0.83543894  0.67492095  0.19114458     0.91300
N435        N  0.60278803  0.81112999  0.42570949    -0.26800
N436        N  0.61446755  0.82808506  0.41242480    -0.34600
C437        C  0.61133252  0.84871613  0.41532251     0.01600
C438        C  0.59715343  0.84450032  0.43124815     0.07600
C439        C  0.59209030  0.82047855  0.43739999    -0.05500
H440        H  0.61905237  0.86564858  0.40663309     0.08300
H441        H  0.58128661  0.81044415  0.44948225     0.09500
Cu442      Cu  0.63481222  0.82219977  0.39149257     0.44200
Cu443      Cu  0.60176616  0.77597067  0.42766798     0.42000
Cu444      Cu  0.63870824  0.76285730  0.39503617     0.43900
N445        N  0.65549558  0.81200640  0.37352063    -0.34200
N446        N  0.65711183  0.79068139  0.37503382    -0.28400
C447        C  0.67227820  0.79020842  0.36163517    -0.04500
C448        C  0.68064421  0.81226684  0.35115108     0.07700
C449        C  0.66962828  0.82563512  0.35905047     0.01500
H450        H  0.67690072  0.77493177  0.35973284     0.09100
H451        H  0.67187345  0.84402662  0.35470810     0.08200
N452        N  0.61700264  0.73723144  0.41544917    -0.35600
N453        N  0.60331777  0.74203042  0.42737659    -0.27800
C454        C  0.59097356  0.72157990  0.43854538    -0.03000
C455        C  0.59718666  0.70300413  0.43337586     0.05600
C456        C  0.61373519  0.71357121  0.41868631     0.03700
H457        H  0.57816368  0.72020767  0.44946081     0.08800
H458        H  0.62266664  0.70469805  0.41089234     0.07600
N459        N  0.78149728  0.82832834  0.26228003    -0.26800
N460        N  0.76881369  0.81018910  0.27466242    -0.34600
C461        C  0.77256235  0.79006084  0.27129712     0.01600
C462        C  0.78836899  0.79581226  0.25609873     0.07600
C463        C  0.79372620  0.82031640  0.25086657    -0.05500
H464        H  0.76379443  0.77223158  0.27901353     0.08300
H465        H  0.80532026  0.83140476  0.23936352     0.09500
Cu466      Cu  0.74597470  0.81315244  0.29507318     0.44200
Cu467      Cu  0.78037898  0.86251562  0.26013404     0.42000
Cu468      Cu  0.74031715  0.87113165  0.29229898     0.43900
N469        N  0.72381876  0.82142525  0.31300741    -0.34200
N470        N  0.72182225  0.84254547  0.31170738    -0.28400
C471        C  0.70619584  0.84238245  0.32494787    -0.04500
C472        C  0.69789281  0.82013408  0.33516947     0.07700
C473        C  0.70942283  0.80724043  0.32724413     0.01500
H474        H  0.70133478  0.85746783  0.32698399     0.09100
H475        H  0.70751290  0.78894665  0.33149616     0.08200
N476        N  0.76036575  0.89763084  0.27194925    -0.35600
N477        N  0.77495976  0.89437074  0.25989959    -0.27800
C478        C  0.78501213  0.91459066  0.24830688    -0.03000
C479        C  0.77641145  0.93139122  0.25343686     0.05600
C480        C  0.76086817  0.92008138  0.26848651     0.03700
H481        H  0.79779576  0.91700462  0.23709370     0.08800
H482        H  0.75059169  0.92753608  0.27627410     0.07600
O483        O  0.48481967  0.97005945  0.48348964    -0.72400
O484        O  0.55046559  0.01442456  0.51059898    -0.73400
O485        O  0.53342296  0.97246857  0.48581184    -0.62000
O486        O  0.50182098  0.01185640  0.50807783    -0.70400
O487        O  0.48903351  0.98526560  0.53202826    -0.70000
O488        O  0.51882666  0.94456501  0.50897130    -0.61200
O489        O  0.53730787  0.98657644  0.53383870    -0.73800
O490        O  0.47074430  0.94342468  0.50741920    -0.72500
Cu491      Cu  0.51813987  0.99315940  0.49618145     1.04600
Cu492      Cu  0.50353269  0.96401311  0.52139947     1.04300
C493        C  0.46735227  0.94986697  0.49126931     0.93800
C494        C  0.55424743  0.00747553  0.52647290     0.92900
C495        C  0.53070835  0.95203594  0.49368901     0.85100
C496        C  0.49052034  0.00485731  0.52358186     0.91300
N497        N  0.42731885  0.15372771  0.59027986    -0.26800
N498        N  0.42065596  0.13853696  0.60488919    -0.34600
C499        C  0.42271631  0.11759082  0.60087617     0.01600
C500        C  0.43095138  0.11964516  0.58282866     0.07600
C501        C  0.43343456  0.14277417  0.57657348    -0.05500
H502        H  0.41915816  0.10232162  0.61055238     0.08300
H503        H  0.43971315  0.15134405  0.56311864     0.09500
Cu504      Cu  0.40940605  0.14756608  0.62955588     0.44200
Cu505      Cu  0.43039317  0.18984117  0.58993882     0.42000
Cu506      Cu  0.41484922  0.21149658  0.63138602     0.43900
N507        N  0.39746118  0.16102216  0.65172924    -0.34200
N508        N  0.39944516  0.18412076  0.65234650    -0.28400
C509        C  0.38905417  0.18629718  0.66812305    -0.04500
C510        C  0.38002665  0.16351438  0.67790531     0.07700
C511        C  0.38571937  0.14794472  0.66710801     0.01500
H512        H  0.38764282  0.20305946  0.67196825     0.09100
H513        H  0.38113769  0.12833344  0.66999657     0.08200
N514        N  0.42992542  0.23471517  0.60817130    -0.35600
N515        N  0.43549805  0.22652628  0.59297264    -0.27800
C516        C  0.44503897  0.24569097  0.58051178    -0.03000
C517        C  0.44551850  0.26708065  0.58816905     0.05600
C518        C  0.43573450  0.25940092  0.60573284     0.03700
H519        H  0.45107844  0.24412078  0.56683143     0.08800
H520        H  0.43322932  0.27097015  0.61602148     0.07600
N521        N  0.28855897  0.15687685  0.76999047    -0.26800
N522        N  0.30290287  0.17437481  0.75768299    -0.34600
C523        C  0.29865843  0.19455451  0.75879724     0.01600
C524        C  0.28074164  0.18955376  0.77244430     0.07600
C525        C  0.27488531  0.16551664  0.77926785    -0.05500
H526        H  0.30731450  0.21125069  0.74988487     0.08300
H527        H  0.26122973  0.15482380  0.78995213     0.09500
Cu528      Cu  0.32597735  0.16911499  0.73887846     0.44200
Cu529      Cu  0.28629527  0.12096485  0.77253767     0.42000
Cu530      Cu  0.32015897  0.10569670  0.73792931     0.43900
N531        N  0.34443895  0.15805110  0.71979394    -0.34200
N532        N  0.34218105  0.13485321  0.71930265    -0.28400
C533        C  0.35504218  0.13340729  0.70463403    -0.04500
C534        C  0.36584164  0.15678219  0.69543563     0.07700
C535        C  0.35877721  0.17194408  0.70548271     0.01500
H536        H  0.35581175  0.11634484  0.70066359     0.09100
H537        H  0.36301888  0.19138364  0.70230478     0.08200
N538        N  0.29626906  0.07951096  0.75761133    -0.35600
N539        N  0.28424008  0.08515465  0.77042741    -0.27800
C540        C  0.27014241  0.06402232  0.78071196    -0.03000
C541        C  0.27332628  0.04406621  0.77399946     0.05600
C542        C  0.29003417  0.05463340  0.75936302     0.03700
H543        H  0.25800794  0.06308892  0.79198250     0.08800
H544        H  0.29706132  0.04489685  0.75057344     0.07600
O545        O  0.15758508  0.32034082  0.86593779    -0.72400
O546        O  0.18879952  0.28263552  0.84041524    -0.73400
O547        O  0.20670769  0.32392294  0.86568665    -0.62000
O548        O  0.13963164  0.27898887  0.84067967    -0.70400
O549        O  0.15057295  0.30669436  0.81774539    -0.70000
O550        O  0.21844432  0.35118034  0.84212669    -0.61200
O551        O  0.20004217  0.30989556  0.81701552    -0.73800
O552        O  0.16965486  0.34813223  0.84273317    -0.72500
Cu553      Cu  0.17277065  0.30048249  0.85395961     1.04600
Cu554      Cu  0.18503294  0.32987809  0.82906666     1.04300
C555        C  0.15901160  0.34045832  0.85840159     0.93800
C556        C  0.19963198  0.29037107  0.82479604     0.92900
C557        C  0.22313417  0.34468458  0.85787485     0.85100
C558        C  0.13410726  0.28572618  0.82533065     0.91300
C559        C  0.22388007  0.26144309  0.78821848    -0.04900
C560        C  0.23522215  0.25003868  0.79923179     0.09200
C561        C  0.23530913  0.25221360  0.81850280    -0.02300
C562        C  0.22432318  0.26587843  0.82677686    -0.00600
C563        C  0.21212874  0.27673933  0.81585520    -0.04200
C564        C  0.21210549  0.27446778  0.79644169     0.02800
C565        C  0.24682205  0.23527823  0.79068322     0.09700
C566        C  0.24658469  0.24009162  0.82985964     0.35500
C567        C  0.19936786  0.28478859  0.78480024     0.39000
C568        C  0.27365583  0.24663899  0.78865748    -0.04600
C569        C  0.28478496  0.23192974  0.78236768     0.02600
C570        C  0.26907570  0.20569958  0.77792992    -0.04200
C571        C  0.24207524  0.19477930  0.77909155    -0.00400
C572        C  0.23105284  0.20946347  0.78556897    -0.03000
C573        C  0.28979922  0.27345388  0.79331623     0.36300
C574        C  0.22547524  0.16860711  0.77314572     0.39900
C575        C  0.31247651  0.24365315  0.78117835     0.39000
C576        C  0.20341645  0.19793359  0.78722307     0.36000
C577        C  0.22429229  0.25964390  0.76836940     0.36600
C578        C  0.22654093  0.26944954  0.84654612     0.39900
N579        N  0.33458286  0.25309940  0.78022485    -0.38200
N580        N  0.30260302  0.29485823  0.79703155    -0.39800
N581        N  0.21220216  0.14775863  0.76834934    -0.37500
N582        N  0.18137542  0.18881117  0.78852393    -0.39900
N583        N  0.25551006  0.23032853  0.83887698    -0.39700
N584        N  0.22840898  0.27235249  0.86230271    -0.37300
N585        N  0.18924389  0.29298623  0.77543859    -0.38400
N586        N  0.22467685  0.25821446  0.75253672    -0.40000
C587        C  0.42813049  0.05813043  0.56499054    -0.04900
C588        C  0.45135326  0.06804013  0.55523321     0.09200
C589        C  0.46729725  0.09479777  0.55373956    -0.02300
C590        C  0.46066836  0.11167127  0.56262593    -0.00600
C591        C  0.43758169  0.10186606  0.57281300    -0.04200
C592        C  0.42110445  0.07493827  0.57359576     0.02800
C593        C  0.45991386  0.05039173  0.54731269     0.09700
C594        C  0.49085422  0.10490503  0.54324725     0.35500
C595        C  0.39655678  0.06440102  0.58281508     0.39000
C596        C  0.45473158  0.04281066  0.52877315    -0.04600
C597        C  0.46403104  0.02723749  0.52115046     0.02600
C598        C  0.47929511  0.01983788  0.53189813    -0.04200
C599        C  0.48443084  0.02748623  0.55049194    -0.00400
C600        C  0.47452353  0.04246304  0.55819569    -0.03000
C601        C  0.44032819  0.05157853  0.51745730     0.36300
C602        C  0.50104095  0.02114800  0.56147784     0.39900
C603        C  0.45737729  0.01837331  0.50236168     0.39000
C604        C  0.47993123  0.05038975  0.57724302     0.36000
C605        C  0.41157785  0.03056068  0.56624696     0.36600
C606        C  0.47839655  0.13904210  0.56186209     0.39900
N607        N  0.45199572  0.01118923  0.48740688    -0.38200
N608        N  0.42901994  0.05876551  0.50840120    -0.39800
N609        N  0.51441161  0.01620947  0.57019143    -0.37500
N610        N  0.48419044  0.05676130  0.59242876    -0.39900
N611        N  0.50955790  0.11283910  0.53480641    -0.39700
N612        N  0.49265674  0.16084782  0.56114242    -0.37300
N613        N  0.37692804  0.05591832  0.59012297    -0.38400
N614        N  0.39842182  0.00855599  0.56724931    -0.40000
C615        C  0.57620495  0.93385945  0.46975685    -0.04900
C616        C  0.56013010  0.90731641  0.46689497     0.09200
C617        C  0.53447951  0.89543497  0.47301139    -0.02300
C618        C  0.52491996  0.91000065  0.48187906    -0.00600
C619        C  0.54101482  0.93659396  0.48478938    -0.04200
C620        C  0.56673526  0.94844081  0.47872290     0.02800
C621        C  0.57028234  0.89179315  0.45753041     0.09700
C622        C  0.51788104  0.86817874  0.47006540     0.35500
C623        C  0.58370976  0.97550818  0.48216794     0.39000
C624        C  0.58549385  0.88358283  0.46740585    -0.04600
C625        C  0.59479694  0.86868682  0.45869867     0.02600
C626        C  0.58877599  0.86167516  0.44004018    -0.04200
C627        C  0.57374950  0.87014943  0.43011981    -0.00400
C628        C  0.56456527  0.88515894  0.43884025    -0.03000
C629        C  0.59132887  0.89028911  0.48663146     0.36300
C630        C  0.56684372  0.86259871  0.41113042     0.39900
C631        C  0.61108396  0.86109155  0.46888405     0.39000
C632        C  0.54893033  0.89357181  0.42866174     0.36000
C633        C  0.60250913  0.94615248  0.46337062     0.36600
C634        C  0.49821420  0.89775006  0.48739875     0.39900
N635        N  0.62412223  0.85509950  0.47701736    -0.38200
N636        N  0.59595675  0.89568965  0.50196227    -0.39800
N637        N  0.56129461  0.85653528  0.39598634    -0.37500
N638        N  0.53636588  0.90023217  0.42060195    -0.39900
N639        N  0.50463328  0.84644900  0.46765149    -0.39700
N640        N  0.47691029  0.88804131  0.49177330    -0.37300
N641        N  0.59723371  0.99708562  0.48497379    -0.38400
N642        N  0.62349228  0.95589169  0.45826659    -0.40000
C643        C  0.81385226  0.74896721  0.24798203    -0.04900
C644        C  0.81080111  0.74558222  0.22880266     0.09200
C645        C  0.80107859  0.75911186  0.21848842    -0.02300
C646        C  0.79378647  0.77551619  0.22733548    -0.00600
C647        C  0.79643327  0.77874472  0.24666366    -0.04200
C648        C  0.80675231  0.76550672  0.25690277     0.02800
C649        C  0.81730728  0.72730686  0.21938027     0.09700
C650        C  0.79850384  0.75597494  0.19869282     0.35500
C651        C  0.81085401  0.76943054  0.27655251     0.39000
C652        C  0.79820200  0.70157406  0.21673030    -0.04600
C653        C  0.80398465  0.68448307  0.20727495     0.02600
C654        C  0.82897547  0.69302748  0.20048355    -0.04200
C655        C  0.84813640  0.71879774  0.20323112    -0.00400
C656        C  0.84226285  0.73589363  0.21259823    -0.03000
C657        C  0.77251265  0.69279389  0.22364613     0.36300
C658        C  0.87413456  0.72753433  0.19695958     0.39900
C659        C  0.78395689  0.65834770  0.20400737     0.39000
C660        C  0.86186201  0.76236714  0.21528281     0.36000
C661        C  0.82446237  0.73547121  0.25848417     0.36600
C662        C  0.78269784  0.78825189  0.21647351     0.39900
N663        N  0.76786187  0.63756105  0.20135806    -0.38200
N664        N  0.75203354  0.68584146  0.22917617    -0.39800
N665        N  0.89486740  0.73444143  0.19199029    -0.37500
N666        N  0.87747278  0.78350635  0.21742336    -0.39900
N667        N  0.79656624  0.75343724  0.18290915    -0.39700
N668        N  0.77391318  0.79838033  0.20770108    -0.37300
N669        N  0.81417791  0.77253437  0.29223166    -0.38400
N670        N  0.83299910  0.72472882  0.26681184    -0.40000
C671        C  0.01533187  0.22987950  0.78991374    -0.04900
C672        C  0.03411638  0.22201687  0.79084932     0.09200
C673        C  0.02890651  0.19816680  0.78349413    -0.02300
C674        C  0.00494032  0.18212829  0.77524456    -0.00600
C675        C  0.98593683  0.18983675  0.77436241    -0.04200
C676        C  0.99128594  0.21385248  0.78169397     0.02800
C677        C  0.05948057  0.23874288  0.79975421     0.09700
C678        C  0.04835024  0.19021225  0.78442823     0.35500
C679        C  0.97179019  0.22174127  0.78139641     0.39000
C680        C  0.06335298  0.23494756  0.81835534    -0.04600
C681        C  0.08753150  0.24997982  0.82670582     0.02600
C682        C  0.10835924  0.26926569  0.81641293    -0.04200
C683        C  0.10410614  0.27273945  0.79753183    -0.00400
C684        C  0.07977534  0.25763017  0.78938992    -0.03000
C685        C  0.04224032  0.21533690  0.82890539     0.36300
C686        C  0.12465485  0.29126911  0.78603176     0.39900
C687        C  0.09040516  0.24518008  0.84594936     0.39000
C688        C  0.07554114  0.26128829  0.77016832     0.36000
C689        C  0.02075214  0.25438146  0.79761613     0.36600
C690        C  0.00022301  0.15802903  0.76719878     0.39900
N691        N  0.09246676  0.24099205  0.86125870    -0.38200
N692        N  0.02539130  0.19968560  0.83727331    -0.39800
N693        N  0.14087672  0.30600398  0.77672655    -0.37500
N694        N  0.07207928  0.26416302  0.75485892    -0.39900
N695        N  0.06391261  0.18394915  0.78522711    -0.39700
N696        N  0.99651797  0.13881555  0.76079478    -0.37300
N697        N  0.95625731  0.22806804  0.78120215    -0.38400
N698        N  0.02515359  0.27394147  0.80378107    -0.40000
C699        C  0.67325017  0.08634829  0.55202763    -0.04900
C700        C  0.65125040  0.07292795  0.56301347     0.09200
C701        C  0.65323083  0.07610905  0.58223935    -0.02300
C702        C  0.67707851  0.09290536  0.59046386    -0.00600
C703        C  0.69927106  0.10639136  0.57949158    -0.04200
C704        C  0.69720992  0.10278544  0.56020883     0.02800
C705        C  0.62583916  0.05576317  0.55421388     0.09700
C706        C  0.63056940  0.06218398  0.59350956     0.35500
C707        C  0.71985255  0.11521020  0.54874469     0.39000
C708        C  0.61820825  0.02971010  0.55095344    -0.04600
C709        C  0.59457115  0.01376159  0.54216842     0.02600
C710        C  0.57857251  0.02389139  0.53641378    -0.04200
C711        C  0.58605987  0.04988509  0.53995055    -0.00400
C712        C  0.60961896  0.06574751  0.54883560    -0.03000
C713        C  0.63490140  0.01945632  0.55643474     0.36300
C714        C  0.56917509  0.06012973  0.53492719     0.39900
C715        C  0.58707426  0.98711963  0.53854193     0.39000
C716        C  0.61731285  0.09243152  0.55242220     0.36000
C717        C  0.67112320  0.08324379  0.53222868     0.36600
C718        C  0.67845165  0.09692232  0.61016052     0.39900
N719        N  0.58099754  0.96585115  0.53563374    -0.38200
N720        N  0.64825853  0.01129919  0.56077630    -0.39800
N721        N  0.55564820  0.06824940  0.53097900    -0.37500
N722        N  0.62353554  0.11373146  0.55532590    -0.39900
N723        N  0.61244133  0.05101226  0.60244297    -0.39700
N724        N  0.67944155  0.10010146  0.62587822    -0.37300
N725        N  0.73790129  0.12505414  0.53957624    -0.38400
N726        N  0.66934381  0.08078804  0.51643602    -0.40000
C727        C  0.77338649  0.91198955  0.80307566    -0.04900
C728        C  0.76338841  0.92714794  0.79538654     0.09200
C729        C  0.73680805  0.91852618  0.79638998    -0.02300
C730        C  0.72031377  0.89494132  0.80511496    -0.00600
C731        C  0.73032584  0.87980226  0.81296008    -0.04200
C732        C  0.75693390  0.88836813  0.81176522     0.02800
C733        C  0.78092605  0.95243627  0.78642036     0.09700
C734        C  0.72652829  0.93417333  0.78860987     0.35500
C735        C  0.76727873  0.87241296  0.81886115     0.39000
C736        C  0.78405201  0.95421216  0.76717470    -0.04600
C737        C  0.80028909  0.97811808  0.75872149     0.02600
C738        C  0.81323231  0.00062331  0.76944770    -0.04200
C739        C  0.81019275  0.99865644  0.78881007    -0.00400
C740        C  0.79426019  0.97465241  0.79721065    -0.03000
C741        C  0.77054225  0.93130503  0.75609292     0.36300
C742        C  0.82265005  0.02138179  0.80018989     0.39900
C743        C  0.80433583  0.97927114  0.73903180     0.39000
C744        C  0.79132714  0.97277333  0.81703069     0.36000
C745        C  0.80067215  0.92075900  0.80198215     0.36600
C746        C  0.69313431  0.88666565  0.80648161     0.39900
N747        N  0.80760951  0.98010766  0.72332912    -0.38200
N748        N  0.75968343  0.91299706  0.74729214    -0.39800
N749        N  0.83258720  0.03944345  0.80933802    -0.37500
N750        N  0.78902694  0.97121523  0.83284074    -0.39900
N751        N  0.71840015  0.94671058  0.78238452    -0.39700
N752        N  0.67145371  0.88005622  0.80757286    -0.37300
N753        N  0.77544020  0.85957545  0.82445362    -0.38400
N754        N  0.82246441  0.92783860  0.80112641    -0.40000
C755        C  0.76159731  0.72841629  0.78375512    -0.04900
C756        C  0.77253663  0.75148779  0.79376075     0.09200
C757        C  0.79939907  0.76592772  0.79570523    -0.02300
C758        C  0.81537490  0.75772780  0.78727255    -0.00600
C759        C  0.80452785  0.73458854  0.77710157    -0.04200
C760        C  0.77746043  0.71983910  0.77559765     0.02800
C761        C  0.75582394  0.76107902  0.80188172     0.09700
C762        C  0.81056960  0.78945509  0.80628636     0.35500
C763        C  0.76574346  0.69543476  0.76610353     0.39000
C764        C  0.74664982  0.75424234  0.82000116    -0.04600
C765        C  0.73176178  0.76416999  0.82788443     0.02600
C766        C  0.72567849  0.78076247  0.81755136    -0.04200
C767        C  0.73503796  0.78766914  0.79941552    -0.00400
C768        C  0.74986291  0.77768151  0.79158196    -0.03000
C769        C  0.75244200  0.73681821  0.83044982     0.36300
C770        C  0.73052896  0.80609581  0.78910237     0.39900
C771        C  0.72237894  0.75690699  0.84651412     0.39000
C772        C  0.75908129  0.78450398  0.77288372     0.36000
C773        C  0.73393030  0.71357886  0.78183438     0.36600
C774        C  0.84298694  0.77386170  0.78847239     0.39900
N775        N  0.71488722  0.75106770  0.86137214    -0.38200
N776        N  0.75701759  0.72283379  0.83872475    -0.39800
N777        N  0.72705227  0.82093300  0.78097544    -0.37500
N778        N  0.76636332  0.78984642  0.75794321    -0.39900
N779        N  0.81939283  0.80816453  0.81478028    -0.39700
N780        N  0.86500165  0.78683300  0.78947299    -0.37300
N781        N  0.75630922  0.67593750  0.75855647    -0.38400
N782        N  0.71185106  0.70182897  0.78031570    -0.40000
C783        C  0.95706646  0.54129234  0.52405273    -0.04900
C784        C  0.95120051  0.53937874  0.54291273     0.09200
C785        C  0.96016062  0.52671238  0.55492035    -0.02300
C786        C  0.97356383  0.51459802  0.54797283    -0.00600
C787        C  0.97869437  0.51561345  0.52891737    -0.04200
C788        C  0.97104653  0.52978793  0.51709524     0.02800
C789        C  0.93407537  0.54913686  0.55002366     0.09700
C790        C  0.95527354  0.52595424  0.57447731     0.35500
C791        C  0.97809860  0.53322513  0.49781821     0.39000
C792        C  0.90798421  0.53170619  0.55332009    -0.04600
C793        C  0.89180636  0.54036619  0.56074162     0.02600
C794        C  0.90154374  0.56671269  0.56473530    -0.04200
C795        C  0.92761409  0.58425229  0.56099112    -0.00400
C796        C  0.94381697  0.57544989  0.55372582    -0.03000
C797        C  0.89783929  0.50471649  0.54909896     0.36300
C798        C  0.93768176  0.61149553  0.56409061     0.39900
C799        C  0.86537643  0.52183849  0.56487465     0.39000
C800        C  0.97055280  0.59342811  0.55004829     0.36000
C801        C  0.94841045  0.55488958  0.51177161     0.36600
C802        C  0.98106926  0.50026474  0.56045755     0.39900
N803        N  0.84430665  0.50696686  0.56813202    -0.38200
N804        N  0.88986880  0.48322364  0.54571038    -0.39800
N805        N  0.94573798  0.63324480  0.56652832    -0.37500
N806        N  0.99186648  0.60775774  0.54703873    -0.39900
N807        N  0.95142260  0.52545905  0.59007465    -0.39700
N808        N  0.98700457  0.48886949  0.57049802    -0.37300
N809        N  0.98378958  0.53604688  0.48246135    -0.38400
N810        N  0.94154891  0.56580033  0.50200298    -0.40000
C811        C  0.92337936  0.31640343  0.55858475    -0.04900
C812        C  0.91614732  0.33570977  0.55781841     0.09200
C813        C  0.89258505  0.33090913  0.56552804    -0.02300
C814        C  0.87624452  0.30689542  0.57380676    -0.00600
C815        C  0.88354076  0.28758302  0.57473053    -0.04200
C816        C  0.90723532  0.29249591  0.56707870     0.02800
C817        C  0.93349773  0.36120641  0.54894620     0.09700
C818        C  0.88533849  0.35088088  0.56511822     0.35500
C819        C  0.91473589  0.27270289  0.56746201     0.39000
C820        C  0.93241048  0.36449403  0.52983473    -0.04600
C821        C  0.94920830  0.38822541  0.52133858     0.02600
C822        C  0.96715283  0.40944203  0.53200255    -0.04200
C823        C  0.96795206  0.40581840  0.55134440    -0.00400
C824        C  0.95128363  0.38187659  0.55964056    -0.03000
C825        C  0.91382893  0.34323668  0.51888184     0.36300
C826        C  0.98567883  0.42654424  0.56304868     0.39900
C827        C  0.94829250  0.39007229  0.50147203     0.39000
C828        C  0.95235359  0.37837709  0.57933726     0.36000
C829        C  0.94753645  0.32124885  0.55061042     0.36600
C830        C  0.85222823  0.30236931  0.58185225     0.39900
N831        N  0.94750462  0.39130138  0.48561155    -0.38200
N832        N  0.89894795  0.32628215  0.51018999    -0.39800
N833        N  0.99985895  0.44285348  0.57253071    -0.37500
N834        N  0.95311128  0.37549491  0.59503709    -0.39900
N835        N  0.87964250  0.36688368  0.56486990    -0.39700
N836        N  0.83304405  0.29871662  0.58825869    -0.37300
N837        N  0.92073870  0.25692071  0.56774313    -0.38400
N838        N  0.96681609  0.32519519  0.54420825    -0.40000
C839        C  0.28268372  0.24354271  0.22373483    -0.04900
C840        C  0.27239647  0.21692658  0.22090831     0.09200
C841        C  0.24632469  0.20006331  0.22482019    -0.02300
C842        C  0.23060216  0.20972496  0.23150495    -0.00600
C843        C  0.24073102  0.23644173  0.23403632    -0.04200
C844        C  0.26688612  0.25330146  0.23017129     0.02800
C845        C  0.28887683  0.20650708  0.21363626     0.09700
C846        C  0.23568752  0.17266556  0.22200366     0.35500
C847        C  0.27745705  0.28079074  0.23232555     0.39000
C848        C  0.29674966  0.19253468  0.22530594    -0.04600
C849        C  0.31062949  0.18105139  0.21816444     0.02600
C850        C  0.31734183  0.18405130  0.19935498    -0.04200
C851        C  0.31014339  0.19879289  0.18781575    -0.00400
C852        C  0.29581540  0.20979882  0.19491677    -0.03000
C853        C  0.29042663  0.18991374  0.24469499     0.36300
C854        C  0.31805328  0.20332012  0.16871206     0.39900
C855        C  0.31696948  0.16521622  0.23005286     0.39000
C856        C  0.28811961  0.22449688  0.18293020     0.36000
C857        C  0.30957715  0.26086680  0.22000583     0.36600
C858        C  0.20424383  0.19195345  0.23643184     0.39900
N859        N  0.32193893  0.15249508  0.23950525    -0.38200
N860        N  0.28534195  0.18784186  0.26015188    -0.39800
N861        N  0.32447328  0.20705159  0.15350961    -0.37500
N862        N  0.28212926  0.23637287  0.17341202    -0.39900
N863        N  0.22728741  0.15081386  0.21985355    -0.39700
N864        N  0.18324783  0.17774322  0.24039865    -0.37300
N865        N  0.28592422  0.30272898  0.23402408    -0.38400
N866        N  0.33101270  0.27464382  0.21694860    -0.40000
C867        C  0.11625685  0.41102731  0.46804421    -0.04900
C868        C  0.10211282  0.41907960  0.45680130     0.09200
C869        C  0.10379693  0.41852120  0.43753499    -0.02300
C870        C  0.12017794  0.41059271  0.42946964    -0.00600
C871        C  0.13436933  0.40234792  0.44068927    -0.04200
C872        C  0.13204756  0.40232720  0.46005435     0.02800
C873        C  0.08620889  0.42917082  0.46536614     0.09700
C874        C  0.08888574  0.42649927  0.42604586     0.35500
C875        C  0.14546175  0.39293107  0.47187136     0.39000
C876        C  0.09674882  0.45579291  0.46816790    -0.04600
C877        C  0.08223873  0.46536421  0.47697412     0.02600
C878        C  0.05705859  0.44832276  0.48291445    -0.04200
C879        C  0.04649035  0.42168173  0.48005701    -0.00400
C880        C  0.06101621  0.41213360  0.47118935    -0.03000
C881        C  0.12255086  0.47329127  0.46193138     0.36300
C882        C  0.02112623  0.40400598  0.48690955     0.39900
C883        C  0.09315328  0.49279973  0.47973642     0.39000
C884        C  0.05013289  0.38480373  0.46801967     0.36000
C885        C  0.11480024  0.41210891  0.48789119     0.36600
C886        C  0.12336780  0.41232190  0.40967432     0.39900
N887        N  0.10196850  0.51468639  0.48195091    -0.38200
N888        N  0.14310443  0.48718979  0.45687826    -0.39800
N889        N  0.00102217  0.38971337  0.49250610    -0.37500
N890        N  0.04148784  0.36301833  0.46541776    -0.39900
N891        N  0.07692927  0.43281767  0.41691150    -0.39700
N892        N  0.12595350  0.41384304  0.39388437    -0.37300
N893        N  0.15613927  0.38549059  0.48136763    -0.38400
N894        N  0.11366162  0.41310606  0.50370747    -0.40000
C895        C  0.01466241  0.72595714  0.22461793    -0.04900
C896        C  0.99941354  0.73654298  0.21817326     0.09200
C897        C  0.00927111  0.76337448  0.21868033    -0.02300
C898        C  0.03396499  0.77950828  0.22601118    -0.00600
C899        C  0.04946053  0.76901743  0.23246563    -0.04200
C900        C  0.03960796  0.74204486  0.23154962     0.02800
C901        C  0.97273639  0.71932342  0.21112539     0.09700
C902        C  0.99381974  0.77436363  0.21171729     0.35500
C903        C  0.05516638  0.73061428  0.23735332     0.39000
C904        C  0.95126226  0.71411480  0.22206097    -0.04600
C905        C  0.92614040  0.69814161  0.21539339     0.02600
C906        C  0.92230587  0.68691243  0.19782464    -0.04200
C907        C  0.94385051  0.69165959  0.18706895    -0.00400
C908        C  0.96891892  0.70807056  0.19358931    -0.03000
C909        C  0.95509140  0.72544747  0.24015115     0.36300
C910        C  0.94026493  0.67909772  0.16944765     0.39900
C911        C  0.90426917  0.69416773  0.22631706     0.39000
C912        C  0.99084280  0.71368583  0.18214150     0.36000
C913        C  0.00449505  0.69834123  0.22422140     0.36600
C914        C  0.04271547  0.80676454  0.22767363     0.39900
N915        N  0.88680468  0.69106842  0.23498479    -0.38200
N916        N  0.95824273  0.73461047  0.25454970    -0.39800
N917        N  0.93734095  0.66895567  0.15544823    -0.37500
N918        N  0.00832825  0.71818783  0.17299793    -0.39900
N919        N  0.98144783  0.78307906  0.20617759    -0.39700
N920        N  0.04956472  0.82848831  0.22901248    -0.37300
N921        N  0.06739450  0.72130361  0.24201974    -0.38400
N922        N  0.99631837  0.67631534  0.22384140    -0.40000
C923        C  0.25933921  0.00176457  0.24691242    -0.04900
C924        C  0.26391616  0.00728637  0.22800196     0.09200
C925        C  0.25236740  0.98720963  0.21515832    -0.02300
C926        C  0.23612731  0.96174962  0.22112220    -0.00600
C927        C  0.23135137  0.95602512  0.24010157    -0.04200
C928        C  0.24321075  0.97627576  0.25297771     0.02800
C929        C  0.28110153  0.03422082  0.22140529     0.09700
C930        C  0.25763107  0.99280432  0.19572784     0.35500
C931        C  0.23847506  0.97116636  0.27249176     0.39000
C932        C  0.30770501  0.04344777  0.21960041    -0.04600
C933        C  0.32346270  0.06765116  0.21139309     0.02600
C934        C  0.31271535  0.08291152  0.20508249    -0.04200
C935        C  0.28631863  0.07424754  0.20784579    -0.00400
C936        C  0.27056724  0.04994665  0.21592160    -0.03000
C937        C  0.31875012  0.02779510  0.22599166     0.36300
C938        C  0.27550175  0.09064234  0.20281417     0.39900
C939        C  0.35054390  0.07633214  0.20874352     0.39000
C940        C  0.24344913  0.04099285  0.21856455     0.36000
C941        C  0.27130586  0.02242274  0.26011065     0.36600
C942        C  0.22524026  0.94137385  0.20764205     0.39900
N943        N  0.37214585  0.08328459  0.20659497    -0.38200
N944        N  0.32753104  0.01532066  0.23119783    -0.39800
N945        N  0.26697311  0.10383868  0.19889821    -0.37500
N946        N  0.22181310  0.03381839  0.22074305    -0.39900
N947        N  0.26196509  0.99735455  0.18025402    -0.39700
N948        N  0.21658117  0.92517789  0.19683680    -0.37300
N949        N  0.23486934  0.96719899  0.28808845    -0.38400
N950        N  0.28089684  0.03894146  0.27060952    -0.40000
C951        C  0.35728014  0.89389605  0.44435152    -0.04900
C952        C  0.37172208  0.88407375  0.45339366     0.09200
C953        C  0.36330959  0.85751242  0.45296042    -0.02300
C954        C  0.34110153  0.84092365  0.44295469    -0.00600
C955        C  0.32627321  0.85057138  0.43406061    -0.04200
C956        C  0.33441440  0.87718981  0.43496889     0.02800
C957        C  0.39630551  0.90173673  0.46296187     0.09700
C958        C  0.37754776  0.84726297  0.46295449     0.35500
C959        C  0.31894250  0.88742584  0.42682750     0.39000
C960        C  0.39598713  0.91134610  0.48055115    -0.04600
C961        C  0.41923423  0.92725556  0.48977722     0.02600
C962        C  0.44292816  0.93363736  0.48143553    -0.04200
C963        C  0.44321625  0.92413567  0.46377796    -0.00400
C964        C  0.41996949  0.90820131  0.45459672    -0.03000
C965        C  0.37169298  0.90457391  0.48922349     0.36300
C966        C  0.46740825  0.92990987  0.45533690     0.39900
C967        C  0.41877553  0.93749803  0.50770008     0.39000
C968        C  0.42031905  0.89804916  0.43662426     0.36000
C969        C  0.36601739  0.92125806  0.44474500     0.36600
C970        C  0.33428499  0.81411405  0.44120863     0.39900
N971        N  0.41847993  0.94570844  0.52199025    -0.38200
N972        N  0.35229746  0.89919410  0.49611513    -0.39800
N973        N  0.48671264  0.93448701  0.44864283    -0.37500
N974        N  0.42050895  0.88976614  0.42234439    -0.39900
N975        N  0.38888583  0.83915828  0.47101946    -0.39700
N976        N  0.32899492  0.79277347  0.43976743    -0.37300
N977        N  0.30664173  0.89568815  0.42039488    -0.38400
N978        N  0.37302086  0.94308782  0.44510259    -0.40000
C979        C  0.10576219  0.63752189  0.44906756    -0.04900
C980        C  0.11568427  0.62101904  0.45391967     0.09200
C981        C  0.14116077  0.62797298  0.44919323    -0.02300
C982        C  0.15655105  0.65114897  0.43961875    -0.00600
C983        C  0.14660546  0.66764629  0.43464415    -0.04200
C984        C  0.12104937  0.66060854  0.43934071     0.02800
C985        C  0.09899139  0.59593825  0.46354072     0.09700
C986        C  0.15153544  0.61119764  0.45420556     0.35500
C987        C  0.11058005  0.67737834  0.43457880     0.39000
C988        C  0.08863898  0.57267426  0.45371189    -0.04600
C989        C  0.07251505  0.54909393  0.46257803     0.02600
C990        C  0.06578509  0.54859726  0.48125080    -0.04200
C991        C  0.07613263  0.57197823  0.49105819    -0.00400
C992        C  0.09312405  0.59541890  0.48234955    -0.03000
C993        C  0.09458773  0.57305271  0.43438499     0.36300
C994        C  0.06843932  0.57217006  0.50989275     0.39900
C995        C  0.06364581  0.52528392  0.45258231     0.39000
C996        C  0.10477599  0.61906786  0.49277691     0.36000
C997        C  0.07977842  0.63075463  0.45421183     0.36600
C998        C  0.18239875  0.65754545  0.43435615     0.39900
N999        N  0.05675408  0.50628730  0.44465243    -0.38200
N1000       N  0.09943046  0.57343406  0.41898128    -0.39800
N1001       N  0.06212958  0.57231777  0.52486660    -0.37500
N1002       N  0.11418694  0.63792238  0.50111040    -0.39900
N1003       N  0.15975753  0.59774756  0.45813747    -0.39700
N1004       N  0.20300797  0.66263986  0.43013837    -0.37300
N1005       N  0.10214699  0.69068108  0.43074278    -0.38400
N1006       N  0.05912287  0.62540266  0.45848826    -0.40000
C1007       C  0.97109605  0.19582922  0.19544032    -0.04900
C1008       C  0.97444910  0.19495637  0.21456507     0.09200
C1009       C  0.95292060  0.18441048  0.22620258    -0.02300
C1010       C  0.92800217  0.17460407  0.21874834    -0.00600
C1011       C  0.92444735  0.17525410  0.19948479    -0.04200
C1012       C  0.94627804  0.18618028  0.18789990     0.02800
C1013       C  0.00082051  0.20529056  0.22246540     0.09700
C1014       C  0.95652659  0.18365138  0.24590319     0.35500
C1015       C  0.94351015  0.18852186  0.16823799     0.39000
C1016       C  0.01591535  0.23180520  0.22584397    -0.04600
C1017       C  0.04081045  0.24158615  0.23328430     0.02600
C1018       C  0.05097037  0.22493361  0.23700766    -0.04200
C1019       C  0.03581840  0.19836550  0.23351443    -0.00400
C1020       C  0.01076152  0.18858318  0.22636764    -0.03000
C1021       C  0.00587742  0.24903875  0.22139221     0.36300
C1022       C  0.04566823  0.18091949  0.23775244     0.39900
C1023       C  0.05617621  0.26891938  0.23663081     0.39000
C1024       C  0.99511944  0.16129679  0.22296482     0.36000
C1025       C  0.99334349  0.20683326  0.18352339     0.36600
C1026       C  0.90612769  0.16343246  0.23100208     0.39900
N1027       N  0.06839011  0.29071310  0.23935968    -0.38200
N1028       N  0.99789115  0.26276349  0.21770702    -0.39800
N1029       N  0.05348594  0.16696347  0.24111944    -0.37500
N1030       N  0.98254487  0.13953742  0.22026841    -0.39900
N1031       N  0.95948998  0.18304192  0.26160311    -0.39700
N1032       N  0.88874652  0.15464228  0.24083976    -0.37300
N1033       N  0.94134035  0.19040916  0.15255969    -0.38400
N1034       N  0.01111342  0.21564803  0.17405146    -0.40000
C1035       C  0.78304950  0.98130578  0.21775422    -0.04900
C1036       C  0.79742058  0.00428222  0.22759291     0.09200
C1037       C  0.80390538  0.00328409  0.24616243    -0.02300
C1038       C  0.79629245  0.97939399  0.25481992    -0.00600
C1039       C  0.78286282  0.95641483  0.24474816    -0.04200
C1040       C  0.77605206  0.95743157  0.22623360     0.02800
C1041       C  0.80662324  0.02966013  0.21820057     0.09700
C1042       C  0.81895947  0.02693887  0.25619407     0.35500
C1043       C  0.76139831  0.93387099  0.21601133     0.39000
C1044       C  0.79272959  0.04307880  0.21970485    -0.04600
C1045       C  0.80180103  0.06731215  0.21116115     0.02600
C1046       C  0.82504145  0.07841141  0.20111771    -0.04200
C1047       C  0.83884521  0.06471134  0.19961331    -0.00400
C1048       C  0.82954761  0.04040447  0.20803283    -0.03000
C1049       C  0.76893134  0.03173911  0.22995537     0.36300
C1050       C  0.86311353  0.07584308  0.18993603     0.39900
C1051       C  0.78665013  0.08029954  0.21227289     0.39000
C1052       C  0.84364602  0.02638021  0.20635623     0.36000
C1053       C  0.77551098  0.98232218  0.19889198     0.36600
C1054       C  0.80293882  0.97854287  0.27394558     0.39900
N1055       N  0.77447238  0.09056119  0.21319951    -0.38200
N1056       N  0.74994930  0.02263740  0.23813592    -0.39800
N1057       N  0.88246358  0.08465973  0.18222089    -0.37500
N1058       N  0.85477619  0.01508986  0.20500606    -0.39900
N1059       N  0.83106464  0.04585518  0.26412604    -0.39700
N1060       N  0.80814145  0.97787059  0.28922888    -0.37300
N1061       N  0.74969668  0.91505226  0.20788215    -0.38400
N1062       N  0.76942588  0.98317390  0.18386614    -0.40000
C1063       C  0.12291880  0.41076124  0.90841302    -0.04900
C1064       C  0.11586560  0.39971906  0.89079354     0.09200
C1065       C  0.09827484  0.40369996  0.88002223    -0.02300
C1066       C  0.08811911  0.41900989  0.88672015    -0.00600
C1067       C  0.09561274  0.43051011  0.90416925    -0.04200
C1068       C  0.11286217  0.42617118  0.91507788     0.02800
C1069       C  0.12738574  0.38430309  0.88338276     0.09700
C1070       C  0.09078031  0.39215012  0.86198740     0.34600
C1071       C  0.12083326  0.43815709  0.93295109     0.39000
C1072       C  0.11313993  0.35725121  0.88331231    -0.04600
C1073       C  0.12357894  0.34277359  0.87551458     0.02600
C1074       C  0.14847404  0.35532141  0.86784211    -0.04200
C1075       C  0.16315601  0.38240746  0.86875847    -0.00400
C1076       C  0.15252117  0.39683011  0.87629501    -0.03000
C1077       C  0.08762959  0.34437577  0.89119424     0.36300
C1078       C  0.18958493  0.39545019  0.86255842     0.39900
C1079       C  0.10829097  0.31502993  0.87494766     0.39000
C1080       C  0.16736820  0.42464405  0.87665706     0.36000
C1081       C  0.14066909  0.40634770  0.91960797     0.36600
C1082       C  0.06951937  0.42249283  0.87583941     0.39900
N1083       N  0.09596208  0.29289540  0.87460966    -0.38200
N1084       N  0.06728477  0.33417998  0.89748836    -0.39800
N1085       N  0.21070996  0.40579940  0.85773224    -0.37500
N1086       N  0.17917896  0.44682701  0.87700049    -0.39900
N1087       N  0.08476114  0.38285684  0.84762420    -0.39700
N1088       N  0.05458201  0.42519545  0.86722757    -0.37300
N1089       N  0.12720558  0.44776258  0.94719461    -0.38400
N1090       N  0.15487945  0.40283534  0.92848815    -0.40000
C1091       C  0.93310015  0.56587251  0.12427321    -0.04900
C1092       C  0.90741881  0.55267584  0.13023735     0.09200
C1093       C  0.89296520  0.52581251  0.12834338    -0.02300
C1094       C  0.90414471  0.51212927  0.12043067    -0.00600
C1095       C  0.93004698  0.52525962  0.11469225    -0.04200
C1096       C  0.94446119  0.55221549  0.11661594     0.02800
C1097       C  0.89555108  0.56731895  0.13828634     0.09700
C1098       C  0.86652520  0.51232693  0.13446127     0.35500
C1099       C  0.97117975  0.56591258  0.11114734     0.39000
C1100       C  0.88101728  0.57491318  0.12706026    -0.04600
C1101       C  0.87087197  0.58988561  0.13438350     0.02600
C1102       C  0.87543982  0.59758002  0.15299455    -0.04200
C1103       C  0.89009061  0.58987234  0.16421323    -0.00400
C1104       C  0.89978897  0.57450453  0.15690987    -0.03000
C1105       C  0.87669772  0.56740522  0.10789118     0.36300
C1106       C  0.89639630  0.59878213  0.18302388     0.39900
C1107       C  0.85537935  0.59689246  0.12273867     0.39000
C1108       C  0.91435631  0.56619254  0.16848821     0.36000
C1109       C  0.94774976  0.59358874  0.12597598     0.36600
C1110       C  0.88859249  0.48470973  0.11749519     0.39900
N1111       N  0.84308022  0.60234419  0.11325437    -0.38200
N1112       N  0.87328266  0.56136105  0.09261555    -0.39800
N1113       N  0.90156339  0.60598340  0.19799049    -0.37500
N1114       N  0.92592396  0.55947122  0.17769040    -0.39900
N1115       N  0.84543332  0.50158233  0.13934120    -0.39700
N1116       N  0.87614658  0.46286090  0.11508180    -0.37300
N1117       N  0.99249601  0.57688555  0.10679441    -0.38400
N1118       N  0.95932261  0.61569598  0.12734870    -0.40000
C1119       C  0.91180383  0.26769749  0.15473720    -0.04900
C1120       C  0.90641699  0.27126386  0.13635972     0.09200
C1121       C  0.88995900  0.24978795  0.12565711    -0.02300
C1122       C  0.87841491  0.22489764  0.13342209    -0.00600
C1123       C  0.88353886  0.22130258  0.15190863    -0.04200
C1124       C  0.90061272  0.24280433  0.16244709     0.02800
C1125       C  0.91748329  0.29776284  0.12840242     0.09700
C1126       C  0.88491553  0.25339402  0.10662008     0.35500
C1127       C  0.90747246  0.23928134  0.18103159     0.39000
C1128       C  0.94326872  0.31100359  0.12259324    -0.04600
C1129       C  0.95355297  0.33596900  0.11504782     0.02600
C1130       C  0.93800308  0.34773087  0.11309072    -0.04200
C1131       C  0.91216021  0.33439037  0.11895813    -0.00400
C1132       C  0.90206009  0.30962918  0.12674176    -0.03000
C1133       C  0.95924117  0.29895251  0.12456404     0.36300
C1134       C  0.89562533  0.34576317  0.11655952     0.39900
C1135       C  0.98040555  0.34989961  0.10996284     0.39000
C1136       C  0.87578649  0.29636577  0.13324321     0.36000
C1137       C  0.92887134  0.28972873  0.16571431     0.36600
C1138       C  0.86064757  0.20313316  0.12251548     0.39900
N1139       N  0.00186915  0.36104588  0.10600316    -0.38200
N1140       N  0.97195385  0.28931783  0.12625041    -0.39800
N1141       N  0.88241035  0.35480439  0.11466070    -0.37500
N1142       N  0.85485807  0.28577562  0.13847131    -0.39900
N1143       N  0.88094073  0.25633277  0.09143575    -0.39700
N1144       N  0.84644886  0.18582276  0.11378279    -0.37300
N1145       N  0.91302629  0.23643249  0.19581237    -0.38400
N1146       N  0.94255946  0.30732648  0.17442219    -0.40000
C1147       C  0.63989502  0.87980879  0.87529951    -0.04900
C1148       C  0.61282697  0.86632282  0.87516158     0.09200
C1149       C  0.59977277  0.84187247  0.86692049    -0.02300
C1150       C  0.61365423  0.83100636  0.85881631    -0.00600
C1151       C  0.64079508  0.84387661  0.85979802    -0.04200
C1152       C  0.65383123  0.86840444  0.86809701     0.02800
C1153       C  0.59793036  0.87752542  0.88405613     0.09700
C1154       C  0.57193806  0.82765148  0.86708575     0.35500
C1155       C  0.68165841  0.88230938  0.86891598     0.39000
C1156       C  0.58339879  0.88562976  0.87321915    -0.04600
C1157       C  0.56769035  0.89414917  0.88165432     0.02600
C1158       C  0.56680475  0.89518163  0.90105557    -0.04200
C1159       C  0.58214831  0.88794497  0.91186611    -0.00400
C1160       C  0.59748964  0.87901690  0.90339403    -0.03000
C1161       C  0.58454269  0.88504346  0.85332517     0.36300
C1162       C  0.58131326  0.88841577  0.93177626     0.39900
C1163       C  0.55268110  0.90210631  0.87025254     0.39000
C1164       C  0.61238235  0.87072463  0.91463245     0.36000
C1165       C  0.65340587  0.90559808  0.88270529     0.36600
C1166       C  0.59979020  0.80622983  0.84990854     0.39900
N1167       N  0.54062815  0.90829090  0.86110164    -0.38200
N1168       N  0.58540645  0.88444023  0.83746564    -0.39800
N1169       N  0.58073616  0.88881231  0.94766048    -0.37500
N1170       N  0.62436760  0.86424493  0.92358868    -0.39900
N1171       N  0.54974409  0.81638907  0.86721547    -0.39700
N1172       N  0.58867368  0.78655660  0.84269676    -0.37300
N1173       N  0.70384099  0.89333387  0.86969147    -0.38400
N1174       N  0.66417226  0.92618610  0.88857371    -0.40000
C1175       C  0.40172847  0.08665327  0.13645789    -0.04900
C1176       C  0.42839973  0.10240926  0.13433205     0.09200
C1177       C  0.44080828  0.12710241  0.14215695    -0.02300
C1178       C  0.42655811  0.13619476  0.15192141    -0.00600
C1179       C  0.39967482  0.12066901  0.15373932    -0.04200
C1180       C  0.38737924  0.09570173  0.14615933     0.02800
C1181       C  0.44370295  0.09269222  0.12436151     0.09700
C1182       C  0.46828737  0.14321813  0.13998106     0.35500
C1183       C  0.36009968  0.07893825  0.14887136     0.39000
C1184       C  0.44708148  0.09610862  0.10517832    -0.04600
C1185       C  0.46242406  0.08780419  0.09594814     0.02600
C1186       C  0.47454556  0.07616406  0.10592490    -0.04200
C1187       C  0.47063140  0.07226927  0.12509080    -0.00400
C1188       C  0.45527794  0.08054385  0.13425923    -0.03000
C1189       C  0.43512070  0.10861119  0.09504160     0.36300
C1190       C  0.48194739  0.05924650  0.13537253     0.39900
C1191       C  0.46651883  0.09216163  0.07631946     0.39000
C1192       C  0.45146458  0.07675167  0.15394895     0.36000
C1193       C  0.38914171  0.06106289  0.12869909     0.36600
C1194       C  0.43955879  0.16187488  0.15954853     0.39900
N1195       N  0.46980060  0.09564997  0.06066047    -0.38200
N1196       N  0.42558356  0.11861539  0.08697982    -0.39800
N1197       N  0.49095025  0.04883931  0.14357571    -0.37500
N1198       N  0.44837913  0.07378930  0.16965376    -0.39900
N1199       N  0.49020313  0.15602989  0.13820775    -0.39700
N1200       N  0.44993740  0.18236047  0.16561974    -0.37300
N1201       N  0.33836405  0.06554385  0.15110636    -0.38400
N1202       N  0.37917601  0.04065873  0.12248945    -0.40000
C1203       C  0.70051201  0.11454885  0.11592726    -0.04900
C1204       C  0.70633394  0.09781386  0.12617792     0.09200
C1205       C  0.68784539  0.07164314  0.12791098    -0.02300
C1206       C  0.66368118  0.06216425  0.11925916    -0.00600
C1207       C  0.65796461  0.07881092  0.10872963    -0.04200
C1208       C  0.67641641  0.10509739  0.10721306     0.02800
C1209       C  0.73222722  0.10769222  0.13487689     0.09700
C1210       C  0.69377328  0.05453841  0.13865274     0.35500
C1211       C  0.67085380  0.12236651  0.09634760     0.39000
C1212       C  0.73609173  0.11517835  0.15341103    -0.04600
C1213       C  0.76037497  0.12393853  0.16177255     0.02600
C1214       C  0.78144331  0.12574303  0.15146955    -0.04200
C1215       C  0.77731564  0.11873563  0.13254406    -0.00400
C1216       C  0.75282159  0.10955910  0.12447411    -0.03000
C1217       C  0.71487886  0.11388516  0.16387865     0.36300
C1218       C  0.79806279  0.12117057  0.12094049     0.39900
C1219       C  0.76304915  0.13065923  0.18108866     0.39000
C1220       C  0.74865925  0.10192703  0.10531004     0.36000
C1221       C  0.71942530  0.14151617  0.11435547     0.36600
C1222       C  0.64438496  0.03549752  0.12175615     0.39900
N1223       N  0.76494762  0.13604652  0.19648235    -0.38200
N1224       N  0.69796735  0.11290616  0.17218558    -0.39800
N1225       N  0.81442563  0.12297491  0.11154516    -0.37500
N1226       N  0.74526415  0.09583081  0.09004438    -0.39900
N1227       N  0.69859409  0.04098688  0.14726252    -0.39700
N1228       N  0.62895096  0.01425260  0.12385694    -0.37300
N1229       N  0.66642369  0.13615103  0.08768280    -0.38400
N1230       N  0.73456212  0.16301685  0.11313489    -0.40000
C1231       C  0.08907804  0.78663880  0.78527343    -0.04900
C1232       C  0.06680719  0.76829046  0.79440771     0.09200
C1233       C  0.06887533  0.75955602  0.81210603    -0.02300
C1234       C  0.09303380  0.76949845  0.82080880    -0.00600
C1235       C  0.11531459  0.78824417  0.81182604    -0.04200
C1236       C  0.11327997  0.79659655  0.79394436     0.02800
C1237       C  0.04093565  0.75898058  0.78578152     0.09700
C1238       C  0.04602588  0.74041265  0.82138271     0.35500
C1239       C  0.13595840  0.81614704  0.78473365     0.39000
C1240       C  0.02866089  0.73517453  0.77667009    -0.04600
C1241       C  0.00376497  0.72597144  0.76929078     0.02600
C1242       C  0.99104452  0.74068722  0.77083253    -0.04200
C1243       C  0.00368522  0.76481133  0.77968112    -0.00400
C1244       C  0.02846026  0.77381750  0.78717786    -0.03000
C1245       C  0.04170976  0.72014751  0.77494934     0.36300
C1246       C  0.99166873  0.78088545  0.78059798     0.39900
C1247       C  0.99099179  0.70093870  0.76066344     0.39000
C1248       C  0.04125107  0.79844881  0.79637394     0.36000
C1249       C  0.08696866  0.79543230  0.76701154     0.36600
C1250       C  0.09500918  0.75995252  0.83884312     0.39900
N1251       N  0.98082759  0.68096663  0.75378095    -0.38200
N1252       N  0.05214282  0.70818166  0.77356456    -0.39800
N1253       N  0.98216052  0.79377929  0.78134932    -0.37500
N1254       N  0.05157397  0.81810676  0.80368019    -0.39900
N1255       N  0.02775560  0.72508682  0.82870903    -0.39700
N1256       N  0.09659815  0.75231984  0.85321297    -0.37300
N1257       N  0.15407765  0.83178473  0.77744130    -0.38400
N1258       N  0.08522794  0.80244285  0.75244970    -0.40000
C1259       C  0.20318486  0.92335622  0.80501111    -0.04900
C1260       C  0.22901522  0.93802132  0.79954320     0.09200
C1261       C  0.24548266  0.92727372  0.80088596    -0.02300
C1262       C  0.23652427  0.90245236  0.80840624    -0.00600
C1263       C  0.21077655  0.88789368  0.81423885    -0.04200
C1264       C  0.19402789  0.89831722  0.81221209     0.02800
C1265       C  0.23930088  0.96524333  0.79308269     0.09700
C1266       C  0.27174714  0.94190533  0.79456234     0.35500
C1267       C  0.16719116  0.88305818  0.81712337     0.39000
C1268       C  0.25256176  0.98564629  0.80548194    -0.04600
C1269       C  0.26352131  0.01137211  0.79932554     0.02600
C1270       C  0.26101961  0.01692679  0.78070798    -0.04200
C1271       C  0.24697731  0.99640850  0.76844678    -0.00400
C1272       C  0.23632097  0.97069083  0.77459650    -0.03000
C1273       C  0.25495783  0.98004090  0.82462164     0.36300
C1274       C  0.24275903  0.00170518  0.74961051     0.39900
C1275       C  0.27817812  0.03205454  0.81206579     0.39000
C1276       C  0.22230814  0.94975095  0.76190885     0.36000
C1277       C  0.18609379  0.93416061  0.80329466     0.36600
C1278       C  0.25418785  0.89243140  0.81093975     0.39900
N1279       N  0.28990535  0.04850203  0.82226683    -0.38200
N1280       N  0.25674091  0.97543060  0.83987837    -0.39800
N1281       N  0.23929244  0.00593888  0.73460578    -0.37500
N1282       N  0.21108147  0.93301331  0.75181255    -0.39900
N1283       N  0.29265665  0.95357135  0.78942105    -0.39700
N1284       N  0.26826542  0.88444636  0.81306912    -0.37300
N1285       N  0.14577233  0.87081575  0.82098409    -0.38400
N1286       N  0.17248028  0.94280815  0.80187575    -0.40000
C1287       C  0.15326162  0.71731009  0.88858863    -0.04900
C1288       C  0.13771399  0.69521389  0.87815233     0.09200
C1289       C  0.13272886  0.69780939  0.85948327    -0.02300
C1290       C  0.14285710  0.72240819  0.85135242    -0.00600
C1291       C  0.15844649  0.74460840  0.86178939    -0.04200
C1292       C  0.16372724  0.74191450  0.88042981     0.02800
C1293       C  0.12663292  0.66911596  0.88684120     0.09700
C1294       C  0.11714251  0.67507213  0.84865741     0.35500
C1295       C  0.18051893  0.76440598  0.89111739     0.39000
C1296       C  0.10107168  0.65658634  0.89309902    -0.04600
C1297       C  0.09044099  0.63174983  0.90094154     0.02600
C1298       C  0.10561675  0.61954156  0.90314361    -0.04200
C1299       C  0.13151077  0.63255905  0.89724777    -0.00400
C1300       C  0.14175561  0.65699077  0.88883670    -0.03000
C1301       C  0.08573768  0.66937646  0.89144098     0.36300
C1302       C  0.14807963  0.62138188  0.90038632     0.39900
C1303       C  0.06357486  0.61849485  0.90603068     0.39000
C1304       C  0.16791975  0.66972834  0.88211437     0.36000
C1305       C  0.15843295  0.71464244  0.90777060     0.36600
C1306       C  0.13632551  0.72485216  0.83244794     0.39900
N1307       N  0.04210396  0.60798081  0.91001070    -0.38200
N1308       N  0.07360842  0.67968923  0.89014222    -0.39800
N1309       N  0.16141235  0.61259731  0.90290132    -0.37500
N1310       N  0.18875010  0.67992594  0.87668394    -0.39900
N1311       N  0.10473720  0.65690150  0.84004071    -0.39700
N1312       N  0.13104570  0.72683967  0.81739835    -0.37300
N1313       N  0.19396359  0.78236416  0.89960489    -0.38400
N1314       N  0.16253638  0.71243893  0.92306660    -0.40000
C1315       C  0.29221568  0.87523526  0.88113798    -0.04900
C1316       C  0.30286252  0.85868848  0.88262121     0.09200
C1317       C  0.28921406  0.83354539  0.87562196    -0.02300
C1318       C  0.26524453  0.82509208  0.86688519    -0.00600
C1319       C  0.25473679  0.84179543  0.86503209    -0.04200
C1320       C  0.26824074  0.86685170  0.87236778     0.02800
C1321       C  0.32870199  0.86780124  0.89132436     0.09700
C1322       C  0.29991201  0.81636303  0.87749525     0.35500
C1323       C  0.25791732  0.88434033  0.87035589     0.39000
C1324       C  0.33078072  0.86354829  0.91021304    -0.04600
C1325       C  0.35509602  0.87154022  0.91830065     0.02600
C1326       C  0.37758552  0.88396394  0.90754247    -0.04200
C1327       C  0.37539859  0.88806068  0.88855676    -0.00400
C1328       C  0.35104625  0.87997705  0.88051102    -0.03000
C1329       C  0.30776140  0.85051001  0.92123652     0.36300
C1330       C  0.39819215  0.90105496  0.87728807     0.39900
C1331       C  0.35681129  0.86588353  0.93753154     0.39000
C1332       C  0.34886164  0.88395730  0.86101789     0.36000
C1333       C  0.30606978  0.90095635  0.88858407     0.36600
C1334       C  0.25104190  0.79888567  0.86031627     0.39900
N1335       N  0.35818630  0.86127060  0.95285387    -0.38200
N1336       N  0.28935400  0.84003314  0.92998703    -0.39800
N1337       N  0.41633221  0.91136148  0.86824690    -0.37500
N1338       N  0.34702906  0.88704328  0.84546640    -0.39900
N1339       N  0.30850726  0.80271522  0.87906120    -0.39700
N1340       N  0.23966870  0.77796841  0.85511850    -0.37300
N1341       N  0.24964625  0.89825853  0.86872259    -0.38400
N1342       N  0.31713280  0.92146460  0.89455823    -0.40000
C1343       C  0.35727304  0.40463785  0.45170576    -0.04900
C1344       C  0.37125531  0.42998014  0.45831135     0.09200
C1345       C  0.36104515  0.44684211  0.45639044    -0.02300
C1346       C  0.33722916  0.43860988  0.44752918    -0.00600
C1347       C  0.32297984  0.41308701  0.44107528    -0.04200
C1348       C  0.33298764  0.39603157  0.44348382     0.02800
C1349       C  0.39687291  0.43899839  0.46723511     0.09700
C1350       C  0.37515816  0.47275641  0.46352573     0.35500
C1351       C  0.31792510  0.36929288  0.43825412     0.39000
C1352       C  0.41945837  0.45607624  0.45778789    -0.04600
C1353       C  0.44359913  0.46485141  0.46625311     0.02600
C1354       C  0.44531736  0.45620759  0.48409338    -0.04200
C1355       C  0.42272559  0.43910110  0.49354460    -0.00400
C1356       C  0.39856000  0.43060229  0.48515743    -0.03000
C1357       C  0.41780904  0.46463064  0.43933197     0.36300
C1358       C  0.42435860  0.42973727  0.51172536     0.39900
C1359       C  0.46660639  0.48359639  0.45688196     0.39000
C1360       C  0.37537808  0.41318748  0.49494974     0.36000
C1361       C  0.36801441  0.38745377  0.45330197     0.36600
C1362       C  0.32792834  0.45679930  0.44457158     0.39900
N1363       N  0.48496183  0.49865395  0.44948532    -0.38200
N1364       N  0.41643952  0.47150493  0.42464097    -0.39800
N1365       N  0.42571330  0.42227992  0.52621561    -0.37500
N1366       N  0.35686925  0.39918983  0.50269890    -0.39900
N1367       N  0.38646978  0.49342954  0.46918438    -0.39700
N1368       N  0.32059261  0.47137598  0.44223087    -0.37300
N1369       N  0.30589509  0.34791390  0.43420644    -0.38400
N1370       N  0.37663998  0.37380258  0.45459486    -0.40000
C1371       C  0.44661805  0.32781052  0.56972729    -0.04900
C1372       C  0.47097604  0.34062945  0.56137823     0.09200
C1373       C  0.48716161  0.32953503  0.56206543    -0.02300
C1374       C  0.47897613  0.30565201  0.57095220    -0.00600
C1375       C  0.45447379  0.29264988  0.57924551    -0.04200
C1376       C  0.43837071  0.30393031  0.57861543     0.02800
C1377       C  0.47943282  0.36581197  0.55176443     0.09700
C1378       C  0.51227268  0.34276203  0.55358258     0.35500
C1379       C  0.41288742  0.29059730  0.58650145     0.39000
C1380       C  0.49671565  0.38902003  0.56044114    -0.04600
C1381       C  0.50391863  0.41276681  0.55165446     0.02600
C1382       C  0.49367199  0.41343875  0.53419354    -0.04200
C1383       C  0.47651332  0.39019528  0.52546595    -0.00400
C1384       C  0.46965199  0.36646823  0.53414110    -0.03000
C1385       C  0.50720304  0.38839842  0.57838245     0.36300
C1386       C  0.46525551  0.39070580  0.50780195     0.39900
C1387       C  0.52256171  0.43646611  0.56031407     0.39000
C1388       C  0.45266578  0.34264759  0.52488323     0.36000
C1389       C  0.42998289  0.33923999  0.56905505     0.36600
C1390       C  0.49613279  0.29484520  0.57193106     0.39900
N1391       N  0.53751378  0.45537980  0.56715860    -0.38200
N1392       N  0.51565861  0.38784179  0.59265043    -0.39800
N1393       N  0.45623661  0.39120731  0.49375634    -0.37500
N1394       N  0.43918536  0.32363106  0.51748185    -0.39900
N1395       N  0.53233954  0.35340724  0.54687773    -0.39700
N1396       N  0.50985167  0.28625878  0.57268189    -0.37300
N1397       N  0.39253424  0.28000512  0.59276601    -0.38400
N1398       N  0.41676249  0.34840502  0.56841882    -0.40000
C1399       C  0.62648292  0.54682590  0.54458144    -0.04900
C1400       C  0.63702689  0.53042534  0.54766498     0.09200
C1401       C  0.62279362  0.50422827  0.54298007    -0.02300
C1402       C  0.59824433  0.49451351  0.53498312    -0.00600
C1403       C  0.58775873  0.51095550  0.53173606    -0.04200
C1404       C  0.60187604  0.53712202  0.53665803     0.02800
C1405       C  0.66352245  0.54089664  0.55534370     0.09700
C1406       C  0.63351089  0.48731009  0.54636323     0.35500
C1407       C  0.59147878  0.55427216  0.53297932     0.39000
C1408       C  0.66724765  0.53765400  0.57413769    -0.04600
C1409       C  0.69228022  0.54697540  0.58123680     0.02600
C1410       C  0.71377821  0.55987693  0.56958063    -0.04200
C1411       C  0.70992813  0.56314676  0.55073914    -0.00400
C1412       C  0.68487778  0.55364029  0.54366799    -0.03000
C1413       C  0.64522413  0.52456856  0.58611638     0.36300
C1414       C  0.73170440  0.57681316  0.53863449     0.39900
C1415       C  0.69577299  0.54228390  0.60037472     0.39000
C1416       C  0.68096329  0.55688771  0.52432128     0.36000
C1417       C  0.64111498  0.57374329  0.54943825     0.36600
C1418       C  0.58351541  0.46744988  0.53049984     0.39900
N1419       N  0.69851007  0.53842113  0.61562759    -0.38200
N1420       N  0.62760750  0.51409484  0.59562366    -0.39800
N1421       N  0.74903042  0.58766869  0.52892994    -0.37500
N1422       N  0.67772420  0.55946518  0.50891323    -0.39900
N1423       N  0.64205335  0.47382084  0.54913779    -0.39700
N1424       N  0.57169905  0.44587862  0.52691740    -0.37300
N1425       N  0.58316544  0.56791738  0.53000897    -0.38400
N1426       N  0.65284433  0.59522675  0.55327825    -0.40000
C1427       C  0.57501088  0.59001181  0.46634175    -0.04900
C1428       C  0.55930811  0.60162535  0.46574421     0.09200
C1429       C  0.53433592  0.58863038  0.47306879    -0.02300
C1430       C  0.52508097  0.56408513  0.48107368    -0.00600
C1431       C  0.54096233  0.55257961  0.48205406    -0.04200
C1432       C  0.56590318  0.56555278  0.47445485     0.02800
C1433       C  0.56913998  0.62769164  0.45739624     0.09700
C1434       C  0.51824370  0.60066013  0.47239864     0.35500
C1435       C  0.58256387  0.55415702  0.47542932     0.39000
C1436       C  0.56636883  0.63034521  0.43836563    -0.04600
C1437       C  0.57558782  0.65495267  0.43047332     0.02600
C1438       C  0.58765483  0.67706826  0.44162245    -0.04200
C1439       C  0.59039211  0.67431087  0.46071464    -0.00400
C1440       C  0.58117327  0.64967566  0.46855239    -0.03000
C1441       C  0.55379820  0.60764569  0.42696881     0.36300
C1442       C  0.60332460  0.69681633  0.47226483     0.39900
C1443       C  0.57178938  0.65737436  0.41098511     0.39000
C1444       C  0.58413391  0.64684738  0.48811243     0.36000
C1445       C  0.60071448  0.60349100  0.45881293     0.36600
C1446       C  0.49887040  0.55029914  0.48766004     0.39900
N1447       N  0.56871441  0.65927604  0.39544140    -0.38200
N1448       N  0.54375046  0.58949387  0.41792251    -0.39800
N1449       N  0.61363074  0.71475776  0.48149121    -0.37500
N1450       N  0.58646084  0.64451162  0.50370885    -0.39900
N1451       N  0.50550025  0.61036251  0.47189229    -0.39700
N1452       N  0.47792384  0.53921879  0.49282043    -0.37300
N1453       N  0.59582720  0.54504184  0.47616155    -0.38400
N1454       N  0.62121756  0.61430417  0.45281554    -0.40000
C1455       C  0.33588470  0.40163446  0.90027961    -0.04900
C1456       C  0.31977027  0.41147417  0.89435349     0.09200
C1457       C  0.32718650  0.43750227  0.89742437    -0.02300
C1458       C  0.35033818  0.45349944  0.90674270    -0.00600
C1459       C  0.36695630  0.44391659  0.91227173    -0.04200
C1460       C  0.35966307  0.41788918  0.90875245     0.02800
C1461       C  0.29486137  0.39431262  0.88492868     0.09700
C1462       C  0.31093076  0.44781020  0.89091048     0.35500
C1463       C  0.37695082  0.40789548  0.91308973     0.39000
C1464       C  0.27149760  0.38538429  0.89443767    -0.04600
C1465       C  0.24802594  0.36922679  0.88558211     0.02600
C1466       C  0.24780841  0.36153512  0.86723263    -0.04200
C1467       C  0.27121865  0.37024799  0.85778988    -0.00400
C1468       C  0.29464127  0.38680452  0.86655120    -0.03000
C1469       C  0.27166003  0.39287078  0.91337034     0.36300
C1470       C  0.27128455  0.36144440  0.83927014     0.39900
C1471       C  0.22406449  0.36121809  0.89518822     0.39000
C1472       C  0.31857180  0.39621486  0.85664346     0.36000
C1473       C  0.32783746  0.37463537  0.89772246     0.36600
C1474       C  0.35641981  0.47952302  0.91123728     0.39900
N1475       N  0.20493631  0.35486708  0.90280580    -0.38200
N1476       N  0.27183249  0.39893416  0.92845356    -0.39800
N1477       N  0.27124447  0.35426608  0.82454086    -0.37500
N1478       N  0.33766874  0.40370217  0.84874910    -0.39900
N1479       N  0.29792742  0.45595888  0.88566960    -0.39700
N1480       N  0.36111744  0.50022401  0.91488325    -0.37300
N1481       N  0.39069957  0.39982895  0.91643546    -0.38400
N1482       N  0.32130654  0.35307981  0.89570417    -0.40000
C1483       C  0.61996752  0.69654459  0.86946428    -0.04900
C1484       C  0.60236265  0.69513502  0.88290617     0.09200
C1485       C  0.60064371  0.71736009  0.88708373    -0.02300
C1486       C  0.61704198  0.74098585  0.87836912    -0.00600
C1487       C  0.63438722  0.74226020  0.86478700    -0.04200
C1488       C  0.63531127  0.71982063  0.86002608     0.02800
C1489       C  0.58507626  0.66999433  0.89219931     0.09700
C1490       C  0.58157266  0.71573354  0.90004564     0.35500
C1491       C  0.65173515  0.72054991  0.84519420     0.39000
C1492       C  0.58931999  0.66569082  0.91070055    -0.04600
C1493       C  0.57307615  0.64193339  0.91935643     0.02600
C1494       C  0.55280693  0.62186998  0.90937911    -0.04200
C1495       C  0.54900736  0.62620615  0.89068102    -0.00400
C1496       C  0.56464635  0.65029166  0.88233545    -0.03000
C1497       C  0.61053238  0.68579625  0.92082313     0.36300
C1498       C  0.52975601  0.60564728  0.87959643     0.39900
C1499       C  0.57696315  0.63864160  0.93869245     0.39000
C1500       C  0.55965965  0.65488896  0.86349742     0.36000
C1501       C  0.62234769  0.67400344  0.86541591     0.36600
C1502       C  0.61563380  0.76387279  0.88305172     0.39900
N1503       N  0.58022018  0.63617562  0.95412018    -0.38200
N1504       N  0.62743256  0.70188298  0.92887512    -0.39800
N1505       N  0.51445273  0.58929942  0.87068850    -0.37500
N1506       N  0.55569004  0.65857835  0.84848220    -0.39900
N1507       N  0.56625110  0.71434051  0.91032918    -0.39700
N1508       N  0.61450042  0.78211078  0.88684327    -0.37300
N1509       N  0.66446373  0.72089290  0.83316854    -0.38400
N1510       N  0.62422674  0.65599622  0.86224203    -0.40000
C1511       C  0.73218369  0.56872757  0.15166312    -0.04900
C1512       C  0.73047514  0.56975383  0.13237606     0.09200
C1513       C  0.75236768  0.58635051  0.12221432    -0.02300
C1514       C  0.77594156  0.60195584  0.13119811    -0.00600
C1515       C  0.77819809  0.60066521  0.15067893    -0.04200
C1516       C  0.75585153  0.58381402  0.16079388     0.02800
C1517       C  0.70550747  0.55344270  0.12263790     0.09700
C1518       C  0.75054054  0.58731999  0.10232903     0.35500
C1519       C  0.75665702  0.58206163  0.18066307     0.39000
C1520       C  0.68649618  0.56105574  0.12191758    -0.04600
C1521       C  0.66307449  0.54582644  0.11262332     0.02600
C1522       C  0.65858497  0.52292967  0.10382866    -0.04200
C1523       C  0.67790461  0.51565331  0.10422974    -0.00400
C1524       C  0.70120444  0.53079293  0.11365333    -0.03000
C1525       C  0.69118696  0.58471386  0.13068649     0.36300
C1526       C  0.67420404  0.49302405  0.09439824     0.39900
C1527       C  0.64334743  0.55339892  0.11262174     0.39000
C1528       C  0.72092741  0.52320829  0.11397948     0.36000
C1529       C  0.70936826  0.55208192  0.16212417     0.36600
C1530       C  0.79763946  0.61920993  0.11999276     0.39900
N1531       N  0.62763603  0.55948246  0.11264962    -0.38200
N1532       N  0.69501902  0.60361068  0.13769470    -0.39800
N1533       N  0.67125248  0.47502094  0.08649221    -0.37500
N1534       N  0.73671484  0.51722946  0.11416061    -0.39900
N1535       N  0.74906552  0.58793666  0.08648113    -0.39700
N1536       N  0.81466399  0.63312914  0.11089666    -0.37300
N1537       N  0.75704943  0.58038212  0.19651153    -0.38400
N1538       N  0.69109154  0.53892111  0.17042075    -0.40000
C1539       C  0.43435747  0.24451410  0.12662471    -0.04900
C1540       C  0.43387253  0.26689600  0.13228685     0.09200
C1541       C  0.41795526  0.26539791  0.14705385    -0.02300
C1542       C  0.40311023  0.24187607  0.15631853    -0.00600
C1543       C  0.40291782  0.21936640  0.15022696    -0.04200
C1544       C  0.41835121  0.22067841  0.13521609     0.02800
C1545       C  0.45024726  0.29217508  0.12286883     0.09700
C1546       C  0.41677284  0.28810013  0.15266094     0.35500
C1547       C  0.41807338  0.19757828  0.12879110     0.39000
C1548       C  0.44409832  0.29676682  0.10495008    -0.04600
C1549       C  0.45913924  0.32080975  0.09629906     0.02600
C1550       C  0.47983362  0.34104249  0.10585219    -0.04200
C1551       C  0.48562483  0.33636129  0.12398869    -0.00400
C1552       C  0.47147805  0.31183842  0.13212799    -0.03000
C1553       C  0.42216068  0.27665994  0.09540369     0.36300
C1554       C  0.50531533  0.35692942  0.13481276     0.39900
C1555       C  0.45361055  0.32418084  0.07733307     0.39000
C1556       C  0.47886542  0.30671030  0.15008762     0.36000
C1557       C  0.45179375  0.24616950  0.11224971     0.36600
C1558       C  0.38797626  0.24085505  0.17212508     0.39900
N1559       N  0.44908027  0.32668913  0.06219062    -0.38200
N1560       N  0.40470826  0.26057016  0.08779419    -0.39800
N1561       N  0.52092779  0.37323904  0.14357366    -0.37500
N1562       N  0.48478734  0.30253808  0.16436529    -0.39900
N1563       N  0.41587534  0.30623664  0.15711799    -0.39700
N1564       N  0.37614583  0.24020790  0.18483412    -0.37300
N1565       N  0.41777779  0.17917009  0.12352937    -0.38400
N1566       N  0.46581861  0.24757085  0.10083974    -0.40000
loop_ 
_geom_bond_atom_site_label_1 
_geom_bond_atom_site_label_2 
_geom_bond_distance 
_geom_bond_site_symmetry_2 
_ccdc_geom_bond_type 
N1            N2   1.322       .  A
N1            C5   1.344       .  A
N1           Cu9   2.073       .  S
N2            C3   1.347       .  A
N2           Cu8   2.079       .  S
C3            C4   1.386       .  A
C3            H6   1.082       .  S
C4            C5   1.384       .  A
C4         C1522   1.490       .  S
C5            H7   1.082       .  S
Cu8          N11   2.079       .  S
Cu9          N19   2.072       .  S
Cu10         N12   2.081       .  S
Cu10         N18   2.080       .  S
N11          N12   1.324       .  A
N11          C15   1.345       .  A
N12          C13   1.347       .  A
C13          C14   1.384       .  A
C13          H16   1.082       .  S
C14          C15   1.383       .  A
C14          C38   1.473   1_554  S
C15          H17   1.082       .  S
N18          N19   1.321       .  A
N18          C22   1.346       .  A
N19          C20   1.343       .  A
C20          C21   1.388       .  A
C20          H23   1.081       .  S
C21          C22   1.391       .  A
C21        C1550   1.500       .  S
C22          H24   1.081       .  S
N25          N26   1.321       .  A
N25          C29   1.345       .  A
N25         Cu33   2.076       .  S
N26          C27   1.345       .  A
N26         Cu32   2.076       .  S
C27          C28   1.387       .  A
C27          H30   1.082       .  S
C28          C29   1.387       .  A
C28        C1459   1.494       .  S
C29          H31   1.082       .  S
Cu32         N35   2.077       .  S
Cu33         N43   2.076       .  S
Cu34         N36   2.078       .  S
Cu34         N42   2.077       .  S
N35          N36   1.323       .  A
N35          C39   1.346       .  A
N36          C37   1.345       .  A
C37          C38   1.383       .  A
C37          H40   1.082       .  S
C38          C39   1.384       .  A
C39          H41   1.082       .  S
N42          N43   1.321       .  A
N42          C46   1.346       .  A
N43          C44   1.344       .  A
C44          C45   1.388       .  A
C44          H47   1.081       .  S
C45          C46   1.389       .  A
C45        C1494   1.499       .  S
C46          H48   1.082       .  S
O49         Cu57   2.010       .  S
O49          C59   1.278       .  A
O50         Cu57   2.013       .  S
O50          C60   1.278       .  A
O51         Cu57   2.000       .  S
O51          C61   1.276       .  A
O52         Cu57   2.003       .  S
O52          C62   1.277       .  A
O53         Cu58   2.004       .  S
O53          C62   1.277       .  A
O54         Cu58   2.006       .  S
O54          C61   1.278       .  A
O55         Cu58   2.003       .  S
O55          C60   1.277       .  A
O56         Cu58   2.001       .  S
O56          C59   1.277       .  A
Cu57        Cu58   2.376       .  S
C59        C1431   1.484       .  S
C60        C1382   1.483       .  S
C61        C1403   1.479       .  S
C62        C1354   1.479       .  S
O63         Cu71   2.007       .  S
O63          C73   1.278       .  A
O64         Cu71   2.011       .  S
O64          C74   1.278       .  A
O65         Cu71   2.012       .  S
O65          C75   1.278       .  A
O66         Cu71   2.017       .  S
O66          C76   1.279       .  A
O67         Cu72   2.010       .  S
O67          C76   1.278       .  A
O68         Cu72   2.008       .  S
O68          C75   1.277       .  A
O69         Cu72   2.016       .  S
O69          C74   1.279       .  A
O70         Cu72   2.014       .  S
O70          C73   1.279       .  A
Cu71        Cu72   2.373       .  S
C73        C1291   1.487       .  S
C74        C1263   1.489       .  S
C75        C1235   1.484       .  S
C76        C1319   1.489       .  S
N77          N78   1.321       .  A
N77          C81   1.342       .  A
N77         Cu85   2.062       .  S
N78          C79   1.346       .  A
N78         Cu84   2.073       .  S
C79          C80   1.385       .  A
C79          H82   1.082       .  S
C80          C81   1.382       .  A
C80        C1186   1.484       .  S
C81          H83   1.082       .  S
Cu84         N87   2.073       .  S
Cu85         N95   2.062       .  S
Cu86         N88   2.094       .  S
Cu86         N94   2.093       .  S
N87          N88   1.324       .  A
N87          C91   1.344   1_545  A
N88          C89   1.349   1_545  A
C89          C90   1.387       .  A
C89          H92   1.082       .  S
C90          C91   1.381       .  A
C90         C114   1.476   1_554  S
C91          H93   1.082       .  S
N94          N95   1.323       .  A
N94          C98   1.349       .  A
N95          C96   1.343       .  A
C96          C97   1.379       .  A
C96          H99   1.082       .  S
C97          C98   1.387       .  A
C97        C1207   1.485       .  S
C98         H100   1.082       .  S
N101        N102   1.322       .  A
N101        C105   1.344       .  A
N101       Cu109   2.072       .  S
N102        C103   1.345       .  A
N102       Cu108   2.075       .  S
C103        C104   1.386       .  A
C103        H106   1.082       .  S
C104        C105   1.385       .  A
C104       C1158   1.491       .  S
C105        H107   1.082       .  S
Cu108       N111   2.076       .  S
Cu109       N119   2.072       .  S
Cu110       N112   2.088       .  S
Cu110       N118   2.087       .  S
N111        N112   1.323       .  A
N111        C115   1.347       .  A
N112        C113   1.346       .  A
C113        C114   1.385       .  A
C113        H116   1.082       .  S
C114        C115   1.383       .  A
C115        H117   1.082       .  S
N118        N119   1.322       .  A
N118        C122   1.347       .  A
N119        C120   1.345       .  A
C120        C121   1.384       .  A
C120        H123   1.082       .  S
C121        C122   1.387       .  A
C121       C1326   1.492       .  S
C122        H124   1.081       .  S
N125        N126   1.321       .  A
N125        C129   1.343       .  A
N125       Cu133   2.064       .  S
N126        C127   1.344       .  A
N126       Cu132   2.066       .  S
C127        C128   1.383       .  A
C127        H130   1.082       .  S
C128        C129   1.383       .  A
C128       C1095   1.483       .  S
C129        H131   1.082       .  S
Cu132       N135   2.066       .  S
Cu133       N143   2.064       .  S
Cu134       N136   2.085       .  S
Cu134       N142   2.085       .  S
N135        N136   1.323       .  A
N135        C139   1.345       .  A
N136        C137   1.345       .  A
C137        C138   1.385   1_655  A
C137        H140   1.082   1_655  S
C138        C139   1.381   1_455  A
C138        C162   1.471   1_554  S
C139        H141   1.082       .  S
N142        N143   1.322       .  A
N142        C146   1.348       .  A
N143        C144   1.342       .  A
C144        C145   1.382       .  A
C144        H147   1.082       .  S
C145        C146   1.387       .  A
C145       C1130   1.488       .  S
C146        H148   1.082       .  S
N149        N150   1.321       .  A
N149        C153   1.345       .  A
N149       Cu157   2.075       .  S
N150        C151   1.344       .  A
N150       Cu156   2.062       .  S
C151        C152   1.381       .  A
C151        H154   1.082       .  S
C152        C153   1.383       .  A
C152       C1067   1.480       .  S
C153        H155   1.082       .  S
Cu156       N159   2.062       .  S
Cu157       N167   2.075       .  S
Cu158       N160   2.087       .  S
Cu158       N166   2.088       .  S
N159        N160   1.323       .  A
N159        C163   1.343       .  A
N160        C161   1.347       .  A
C161        C162   1.386       .  A
C161        H164   1.082       .  S
C162        C163   1.379       .  A
C163        H165   1.082       .  S
N166        N167   1.323       .  A
N166        C170   1.348       .  A
N167        C168   1.344       .  A
C168        C169   1.385       .  A
C168        H171   1.082       .  S
C169        C170   1.389       .  A
C169       C1298   1.496       .  S
C170        H172   1.081       .  S
O173       Cu181   2.006       .  S
O173        C183   1.278       .  A
O174       Cu181   2.016       .  S
O174        C184   1.279       .  A
O175       Cu181   2.008       .  S
O175        C185   1.278       .  A
O176       Cu181   2.012       .  S
O176        C186   1.278       .  A
O177       Cu182   2.005       .  S
O177        C186   1.277       .  A
O178       Cu182   2.006       .  S
O178        C185   1.278       .  A
O179       Cu182   2.003       .  S
O179        C184   1.277       .  A
O180       Cu182   2.010       .  S
O180        C183   1.278       .  A
Cu181      Cu182   2.365       .  S
C183       C1123   1.485       .  S
C184       C1046   1.493       .  S
C185       C1011   1.493       .  S
C186       C1214   1.510       .  S
N187        N188   1.322       .  A
N187        C191   1.344       .  A
N187       Cu195   2.071       .  S
N188        C189   1.349       .  A
N188       Cu194   2.090       .  S
C189        C190   1.389       .  A
C189        H192   1.082       .  S
C190        C191   1.383       .  A
C190        C983   1.493       .  S
C191        H193   1.082       .  S
Cu194       N197   2.090       .  S
Cu195       N205   2.070       .  S
Cu196       N198   2.076       .  S
Cu196       N204   2.075       .  S
N197        N198   1.324       .  A
N197        C201   1.347       .  A
N198        C199   1.345       .  A
C199        C200   1.382       .  A
C199        H202   1.082       .  S
C200        C201   1.385       .  A
C200        C224   1.475       .  S
C201        H203   1.082       .  S
N204        N205   1.321       .  A
N204        C208   1.346       .  A
N205        C206   1.343       .  A
C206        C207   1.385       .  A
C206        H209   1.082       .  S
C207        C208   1.388       .  A
C207        C955   1.492       .  S
C208        H210   1.082       .  S
N211        N212   1.322       .  A
N211        C215   1.348       .  A
N211       Cu219   2.093       .  S
N212        C213   1.345       .  A
N212       Cu218   2.076       .  S
C213        C214   1.387       .  A
C213        H216   1.082       .  S
C214        C215   1.391       .  A
C214        C899   1.501       .  S
C215        H217   1.081       .  S
Cu218       N221   2.076       .  S
Cu219       N229   2.093       .  S
Cu220       N222   2.077       .  S
Cu220       N228   2.077       .  S
N221        N222   1.322       .  A
N221        C225   1.346       .  A
N222        C223   1.346       .  A
C223        C224   1.385       .  A
C223        H226   1.082       .  S
C224        C225   1.384       .  A
C225        H227   1.082       .  S
N228        N229   1.323       .  A
N228        C232   1.346       .  A
N229        C230   1.348       .  A
C230        C231   1.390       .  A
C230        H233   1.082       .  S
C231        C232   1.386       .  A
C231        C927   1.498       .  S
C232        H234   1.082       .  S
N235        N236   1.321       .  A
N235        C239   1.342       .  A
N235       Cu243   2.061       .  S
N236        C237   1.345       .  A
N236       Cu242   2.072       .  S
C237        C238   1.386       .  A
C237        H240   1.082       .  S
C238        C239   1.383       .  A
C238        C871   1.488       .  S
C239        H241   1.082       .  S
Cu242       N245   2.073       .  S
Cu243       N253   2.061       .  S
Cu244       N246   2.075       .  S
Cu244       N252   2.075       .  S
N245        N246   1.323       .  A
N245        C249   1.344       .  A
N246        C247   1.345       .  A
C247        C248   1.382       .  A
C247        H250   1.082       .  S
C248        C249   1.382       .  A
C248        C272   1.470       .  S
C249        H251   1.082       .  S
N252        N253   1.321       .  A
N252        C256   1.345       .  A
N253        C254   1.342       .  A
C254        C255   1.383       .  A
C254        H257   1.082       .  S
C255        C256   1.387       .  A
C255       C1347   1.488       .  S
C256        H258   1.082       .  S
N259        N260   1.322       .  A
N259        C263   1.344       .  A
N259       Cu267   2.075       .  S
N260        C261   1.345       .  A
N260       Cu266   2.072       .  S
C261        C262   1.383       .  A
C261        H264   1.082       .  S
C262        C263   1.384       .  A
C262        C843   1.487       .  S
C263        H265   1.082       .  S
Cu266       N269   2.072       .  S
Cu267       N277   2.075       .  S
Cu268       N270   2.070       .  S
Cu268       N276   2.070       .  S
N269        N270   1.322       .  A
N269        C273   1.345       .  A
N270        C271   1.344       .  A
C271        C272   1.382       .  A
C271        H274   1.082       .  S
C272        C273   1.383       .  A
C273        H275   1.082       .  S
N276        N277   1.322       .  A
N276        C280   1.344       .  A
N277        C278   1.345       .  A
C278        C279   1.384       .  A
C278        H281   1.082       .  S
C279        C280   1.383       .  A
C279       C1018   1.486       .  S
C280        H282   1.082       .  S
O283       Cu291   2.000       .  S
O283        C293   1.277       .  A
O284       Cu291   2.000       .  S
O284        C294   1.277       .  A
O285       Cu291   2.017       .  S
O285        C295   1.278       .  A
O286       Cu291   2.017       .  S
O286        C296   1.279       .  A
O287       Cu292   2.013       .  S
O287        C296   1.278       .  A
O288       Cu292   2.010       .  S
O288        C295   1.277       .  A
O289       Cu292   2.011       .  S
O289        C294   1.279       .  A
O290       Cu292   2.012       .  S
O290        C293   1.279       .  A
Cu291      Cu292   2.374       .  S
C293       C1179   1.485       .  S
C294        C850   1.486       .  S
C295       C1543   1.481       .  S
C296        C934   1.488       .  S
O297       Cu305   2.005   1_655  S
O297        C307   1.278       .  A
O298       Cu305   2.007       .  S
O298        C308   1.277       .  A
O299       Cu305   2.017   1_655  S
O299        C309   1.279       .  A
O300       Cu305   2.018       .  S
O300        C310   1.279       .  A
O301       Cu306   2.015       .  S
O301        C310   1.279       .  A
O302       Cu306   2.026       .  S
O302        C309   1.280   1_455  A
O303       Cu306   2.004       .  S
O303        C308   1.277       .  A
O304       Cu306   2.012       .  S
O304        C307   1.278   1_455  A
Cu305      Cu306   2.367       .  S
C307        C787   1.493       .  S
C308        C878   1.476       .  S
C309        C822   1.514       .  S
C310        C990   1.494       .  S
N311        N312   1.322       .  A
N311        C315   1.345       .  A
N311       Cu319   2.073       .  S
N312        C313   1.346       .  A
N312       Cu318   2.081       .  S
C313        C314   1.386       .  A
C313        H316   1.082       .  S
C314        C315   1.385       .  A
C314        C794   1.492       .  S
C315        H317   1.082       .  S
Cu318       N321   2.081       .  S
Cu319       N329   2.073       .  S
Cu320       N322   2.076       .  S
Cu320       N328   2.075       .  S
N321        N322   1.323       .  A
N321        C325   1.346       .  A
N322        C323   1.346       .  A
C323        C324   1.383       .  A
C323        H326   1.082       .  S
C324        C325   1.384       .  A
C324        C348   1.474       .  S
C325        H327   1.082       .  S
N328        N329   1.322       .  A
N328        C332   1.345       .  A
N329        C330   1.345       .  A
C330        C331   1.384       .  A
C330        H333   1.082       .  S
C331        C332   1.385       .  A
C331       C1410   1.487       .  S
C332        H334   1.082       .  S
N335        N336   1.322       .  A
N335        C339   1.345       .  A
N335       Cu343   2.079       .  S
N336        C337   1.346       .  A
N336       Cu342   2.082       .  S
C337        C338   1.387       .  A
C337        H340   1.082       .  S
C338        C339   1.387       .  A
C338        C759   1.496       .  S
C339        H341   1.082       .  S
Cu342       N345   2.082       .  S
Cu343       N353   2.079       .  S
Cu344       N346   2.072       .  S
Cu344       N352   2.072       .  S
N345        N346   1.322       .  A
N345        C349   1.347       .  A
N346        C347   1.345       .  A
C347        C348   1.383       .  A
C347        H350   1.082       .  S
C348        C349   1.385       .  A
C349        H351   1.082       .  S
N352        N353   1.322       .  A
N352        C356   1.345       .  A
N353        C354   1.346       .  A
C354        C355   1.387       .  A
C354        H357   1.082       .  S
C355        C356   1.384       .  A
C355       C1242   1.491       .  S
C356        H358   1.082       .  S
O359       Cu367   2.010       .  S
O359        C369   1.278       .  A
O360       Cu367   2.010       .  S
O360        C370   1.279       .  A
O361       Cu367   2.016       .  S
O361        C371   1.278       .  A
O362       Cu367   2.011       .  S
O362        C372   1.278       .  A
O363       Cu368   2.018       .  S
O363        C372   1.279       .  A
O364       Cu368   2.017       .  S
O364        C371   1.278       .  A
O365       Cu368   2.010       .  S
O365        C370   1.277       .  A
O366       Cu368   2.007       .  S
O366        C369   1.278       .  A
Cu367      Cu368   2.373       .  S
C369       C1151   1.491       .  S
C370        C766   1.486       .  S
C371       C1487   1.482       .  S
C372        C731   1.489       .  S
N373        N374   1.323       .  A
N373        C377   1.347       .  A
N373       Cu381   2.084       .  S
N374        C375   1.348       .  A
N374       Cu380   2.088       .  S
C375        C376   1.386       .  A
C375        H378   1.082       .  S
C376        C377   1.385       .  A
C376        C815   1.493       .  S
C377        H379   1.082       .  S
Cu380       N383   2.088       .  S
Cu381       N391   2.083       .  S
Cu382       N384   2.077       .  S
Cu382       N390   2.076       .  S
N383        N384   1.323       .  A
N383        C387   1.347       .  A
N384        C385   1.346       .  A
C385        C386   1.383       .  A
C385        H388   1.082       .  S
C386        C387   1.386       .  A
C386        C410   1.476       .  S
C387        H389   1.082       .  S
N390        N391   1.322       .  A
N390        C394   1.346       .  A
N391        C392   1.346       .  A
C392        C393   1.387       .  A
C392        H395   1.082       .  S
C393        C394   1.386       .  A
C393        C703   1.493       .  S
C394        H396   1.082       .  S
N397        N398   1.322       .  A
N397        C401   1.345       .  A
N397       Cu405   2.071       .  S
N398        C399   1.348       .  A
N398       Cu404   2.089       .  S
C399        C400   1.389       .  A
C399        H402   1.082       .  S
C400        C401   1.386       .  A
C400        C738   1.496       .  S
C401        H403   1.082       .  S
Cu404       N407   2.090       .  S
Cu405       N415   2.071       .  S
Cu406       N408   2.077       .  S
Cu406       N414   2.076       .  S
N407        N408   1.324       .  A
N407        C411   1.347       .  A
N408        C409   1.346       .  A
C409        C410   1.383       .  A
C409        H412   1.082       .  S
C410        C411   1.386       .  A
C411        H413   1.082       .  S
N414        N415   1.322       .  A
N414        C418   1.346       .  A
N415        C416   1.344       .  A
C416        C417   1.383       .  A
C416        H419   1.082       .  S
C417        C418   1.385       .  A
C417        C675   1.487       .  S
C418        H420   1.082       .  S
O421       Cu429   2.003       .  S
O421        C431   1.276       .  A
O422       Cu429   1.995       .  S
O422        C432   1.276       .  A
O423       Cu429   2.014       .  S
O423        C433   1.279       .  A
O424       Cu429   2.011       .  S
O424        C434   1.278       .  A
O425       Cu430   2.004       .  S
O425        C434   1.277       .  A
O426       Cu430   1.998       .  S
O426        C433   1.276       .  A
O427       Cu430   2.029       .  S
O427        C432   1.281       .  A
O428       Cu430   2.031       .  S
O428        C431   1.281       .  A
Cu429      Cu430   2.368       .  S
C431       C1515   1.511       .  S
C432        C906   1.488       .  S
C433       C1102   1.487       .  S
C434        C654   1.482       .  S
N435        N436   1.323       .  A
N435        C439   1.344       .  A
N435       Cu443   2.069       .  S
N436        C437   1.349       .  A
N436       Cu442   2.091       .  S
C437        C438   1.388       .  A
C437        H440   1.082       .  S
C438        C439   1.382       .  A
C438        C626   1.491       .  S
C439        H441   1.082       .  S
Cu442       N445   2.091       .  S
Cu443       N453   2.069       .  S
Cu444       N446   2.070       .  S
Cu444       N452   2.069       .  S
N445        N446   1.324       .  A
N445        C449   1.346       .  A
N446        C447   1.346       .  A
C447        C448   1.381       .  A
C447        H450   1.082       .  S
C448        C449   1.386       .  A
C448        C472   1.474       .  S
C449        H451   1.082       .  S
N452        N453   1.321       .  A
N452        C456   1.345       .  A
N453        C454   1.344       .  A
C454        C455   1.383       .  A
C454        H457   1.082       .  S
C455        C456   1.384       .  A
C455       C1438   1.485       .  S
C456        H458   1.082       .  S
N459        N460   1.323       .  A
N459        C463   1.344       .  A
N459       Cu467   2.074       .  S
N460        C461   1.347       .  A
N460       Cu466   2.090       .  S
C461        C462   1.388       .  A
C461        H464   1.082       .  S
C462        C463   1.384       .  A
C462        C647   1.494       .  S
C463        H465   1.082       .  S
Cu466       N469   2.090       .  S
Cu467       N477   2.074       .  S
Cu468       N470   2.066       .  S
Cu468       N476   2.065       .  S
N469        N470   1.323       .  A
N469        C473   1.348       .  A
N470        C471   1.343       .  A
C471        C472   1.380       .  A
C471        H474   1.082       .  S
C472        C473   1.387       .  A
C473        H475   1.082       .  S
N476        N477   1.321       .  A
N476        C480   1.345       .  A
N477        C478   1.345       .  A
C478        C479   1.384       .  A
C478        H481   1.082       .  S
C479        C480   1.382       .  A
C479       C1039   1.483       .  S
C480        H482   1.082       .  S
O483       Cu491   2.007       .  S
O483        C493   1.278       .  A
O484       Cu491   2.010   1_545  S
O484        C494   1.278       .  A
O485       Cu491   2.011       .  S
O485        C495   1.278       .  A
O486       Cu491   2.006   1_545  S
O486        C496   1.278       .  A
O487       Cu492   2.011       .  S
O487        C496   1.278   1_565  A
O488       Cu492   2.014       .  S
O488        C495   1.279       .  A
O489       Cu492   2.011       .  S
O489        C494   1.278   1_565  A
O490       Cu492   2.005       .  S
O490        C493   1.277       .  A
Cu491      Cu492   2.374       .  S
C493        C962   1.481       .  S
C494        C710   1.483       .  S
C495        C619   1.487       .  S
C496        C598   1.487       .  S
N497        N498   1.321       .  A
N497        C501   1.343       .  A
N497       Cu505   2.069       .  S
N498        C499   1.347       .  A
N498       Cu504   2.086       .  S
C499        C500   1.390       .  A
C499        H502   1.082       .  S
C500        C501   1.385       .  A
C500        C591   1.496       .  S
C501        H503   1.082       .  S
Cu504       N507   2.087       .  S
Cu505       N515   2.069       .  S
Cu506       N508   2.086       .  S
Cu506       N514   2.085       .  S
N507        N508   1.324       .  A
N507        C511   1.348       .  A
N508        C509   1.346       .  A
C509        C510   1.384       .  A
C509        H512   1.082       .  S
C510        C511   1.385       .  A
C510        C534   1.478       .  S
C511        H513   1.082       .  S
N514        N515   1.322       .  A
N514        C518   1.347       .  A
N515        C516   1.344       .  A
C516        C517   1.383       .  A
C516        H519   1.082       .  S
C517        C518   1.388       .  A
C517       C1375   1.491       .  S
C518        H520   1.082       .  S
N521        N522   1.323       .  A
N521        C525   1.346       .  A
N521       Cu529   2.084       .  S
N522        C523   1.347       .  A
N522       Cu528   2.080       .  S
C523        C524   1.386       .  A
C523        H526   1.082       .  S
C524        C525   1.387       .  A
C524        C570   1.494       .  S
C525        H527   1.082       .  S
Cu528       N531   2.080       .  S
Cu529       N539   2.084       .  S
Cu530       N532   2.085       .  S
Cu530       N538   2.085       .  S
N531        N532   1.323       .  A
N531        C535   1.346       .  A
N532        C533   1.348       .  A
C533        C534   1.386       .  A
C533        H536   1.082       .  S
C534        C535   1.384       .  A
C535        H537   1.082       .  S
N538        N539   1.323       .  A
N538        C542   1.346       .  A
N539        C540   1.348       .  A
C540        C541   1.386       .  A
C540        H543   1.082       .  S
C541        C542   1.386       .  A
C541       C1270   1.493       .  S
C542        H544   1.082       .  S
O545       Cu553   2.014       .  S
O545        C555   1.278       .  A
O546       Cu553   2.010       .  S
O546        C556   1.279       .  A
O547       Cu553   2.005       .  S
O547        C557   1.277       .  A
O548       Cu553   2.002       .  S
O548        C558   1.277       .  A
O549       Cu554   2.011       .  S
O549        C558   1.278       .  A
O550       Cu554   2.004       .  S
O550        C557   1.277       .  A
O551       Cu554   2.015       .  S
O551        C556   1.278       .  A
O552       Cu554   2.005       .  S
O552        C555   1.278       .  A
Cu553      Cu554   2.366       .  S
C555       C1074   1.487       .  S
C556        C563   1.499       .  S
C557       C1466   1.482       .  S
C558        C682   1.507       .  S
C559        C560   1.410       .  A
C559        C564   1.414       .  A
C559        C577   1.451       .  S
C560        C561   1.409       .  A
C560        C565   1.500       .  S
C561        C562   1.411       .  A
C561        C566   1.451       .  S
C562        C563   1.420       .  A
C562        C578   1.452       .  S
C563        C564   1.420       .  A
C564        C567   1.451       .  S
C565        C568   1.411       .  A
C565        C572   1.410       .  A
C566        N583   1.157       .  T
C567        N585   1.157       .  T
C568        C569   1.413       .  A
C568        C573   1.451       .  S
C569        C570   1.416       .  A
C569        C575   1.450       .  S
C570        C571   1.417       .  A
C571        C572   1.412       .  A
C571        C574   1.451       .  S
C572        C576   1.451       .  S
C573        N580   1.157       .  T
C574        N581   1.157       .  T
C575        N579   1.157       .  T
C576        N582   1.157       .  T
C577        N586   1.157       .  T
C578        N584   1.157       .  T
C587        C588   1.409       .  A
C587        C592   1.413       .  A
C587        C605   1.451       .  S
C588        C589   1.408       .  A
C588        C593   1.496       .  S
C589        C590   1.410       .  A
C589        C594   1.452       .  S
C590        C591   1.419       .  A
C590        C606   1.451       .  S
C591        C592   1.418       .  A
C592        C595   1.450       .  S
C593        C596   1.410       .  A
C593        C600   1.410       .  A
C594        N611   1.157       .  T
C595        N613   1.157       .  T
C596        C597   1.411       .  A
C596        C601   1.450       .  S
C597        C598   1.416       .  A
C597        C603   1.451       .  S
C598        C599   1.415       .  A
C599        C600   1.410       .  A
C599        C602   1.451       .  S
C600        C604   1.451       .  S
C601        N608   1.157       .  T
C602        N609   1.157       .  T
C603        N607   1.157       .  T
C604        N610   1.157       .  T
C605        N614   1.157       .  T
C606        N612   1.157       .  T
C615        C616   1.412       .  A
C615        C620   1.412       .  A
C615        C633   1.450       .  S
C616        C617   1.412       .  A
C616        C621   1.500       .  S
C617        C618   1.412       .  A
C617        C622   1.451       .  S
C618        C619   1.415       .  A
C618        C634   1.451       .  S
C619        C620   1.414       .  A
C620        C623   1.451       .  S
C621        C624   1.411       .  A
C621        C628   1.412       .  A
C622        N639   1.157       .  T
C623        N641   1.157       .  T
C624        C625   1.412       .  A
C624        C629   1.451       .  S
C625        C626   1.415       .  A
C625        C631   1.451       .  S
C626        C627   1.414       .  A
C627        C628   1.413       .  A
C627        C630   1.450       .  S
C628        C632   1.450       .  S
C629        N636   1.157       .  T
C630        N637   1.157       .  T
C631        N635   1.157       .  T
C632        N638   1.157       .  T
C633        N642   1.157       .  T
C634        N640   1.157       .  T
C643        C644   1.409       .  A
C643        C648   1.412       .  A
C643        C661   1.451       .  S
C644        C645   1.408       .  A
C644        C649   1.496       .  S
C645        C646   1.411       .  A
C645        C650   1.451       .  S
C646        C647   1.418       .  A
C646        C662   1.450       .  S
C647        C648   1.417       .  A
C648        C651   1.450       .  S
C649        C652   1.411       .  A
C649        C656   1.410       .  A
C650        N667   1.157       .  T
C651        N669   1.157       .  T
C652        C653   1.410       .  A
C652        C657   1.451       .  S
C653        C654   1.413       .  A
C653        C659   1.450       .  S
C654        C655   1.414       .  A
C655        C656   1.411       .  A
C655        C658   1.452       .  S
C656        C660   1.450       .  S
C657        N664   1.157       .  T
C658        N665   1.157       .  T
C659        N663   1.157       .  T
C660        N666   1.157       .  T
C661        N670   1.157       .  T
C662        N668   1.157       .  T
C671        C672   1.410       .  A
C671        C676   1.411   1_455  A
C671        C689   1.451       .  S
C672        C673   1.409       .  A
C672        C677   1.494       .  S
C673        C674   1.409       .  A
C673        C678   1.451       .  S
C674        C675   1.415   1_455  A
C674        C690   1.451       .  S
C675        C676   1.415       .  A
C676        C679   1.450       .  S
C677        C680   1.405       .  A
C677        C684   1.406       .  A
C678        N695   1.157       .  T
C679        N697   1.157       .  T
C680        C681   1.411       .  A
C680        C685   1.453       .  S
C681        C682   1.427       .  A
C681        C687   1.452       .  S
C682        C683   1.426       .  A
C683        C684   1.412       .  A
C683        C686   1.451       .  S
C684        C688   1.452       .  S
C685        N692   1.157       .  T
C686        N693   1.158       .  T
C687        N691   1.158       .  T
C688        N694   1.157       .  T
C689        N698   1.157       .  T
C690        N696   1.157   1_455  T
C699        C700   1.409       .  A
C699        C704   1.411       .  A
C699        C717   1.451       .  S
C700        C701   1.410       .  A
C700        C705   1.497       .  S
C701        C702   1.413       .  A
C701        C706   1.451       .  S
C702        C703   1.417       .  A
C702        C718   1.450       .  S
C703        C704   1.417       .  A
C704        C707   1.451       .  S
C705        C708   1.411       .  A
C705        C712   1.411       .  A
C706        N723   1.157       .  T
C707        N725   1.157       .  T
C708        C709   1.412       .  A
C708        C713   1.450       .  S
C709        C710   1.413       .  A
C709        C715   1.451   1_545  S
C710        C711   1.414       .  A
C711        C712   1.411       .  A
C711        C714   1.451       .  S
C712        C716   1.450       .  S
C713        N720   1.157       .  T
C714        N721   1.157       .  T
C715        N719   1.157       .  T
C716        N722   1.157       .  T
C717        N726   1.157       .  T
C718        N724   1.157       .  T
C727        C728   1.411       .  A
C727        C732   1.412       .  A
C727        C745   1.450       .  S
C728        C729   1.411       .  A
C728        C733   1.500       .  S
C729        C730   1.413       .  A
C729        C734   1.451       .  S
C730        C731   1.415       .  A
C730        C746   1.451       .  S
C731        C732   1.414       .  A
C732        C735   1.451       .  S
C733        C736   1.411       .  A
C733        C740   1.410       .  A
C734        N751   1.157       .  T
C735        N753   1.157       .  T
C736        C737   1.413       .  A
C736        C741   1.450       .  S
C737        C738   1.417   1_565  A
C737        C743   1.450       .  S
C738        C739   1.419   1_545  A
C739        C740   1.412       .  A
C739        C742   1.451   1_565  S
C740        C744   1.451       .  S
C741        N748   1.157       .  T
C742        N749   1.157       .  T
C743        N747   1.157       .  T
C744        N750   1.157       .  T
C745        N754   1.157       .  T
C746        N752   1.157       .  T
C755        C756   1.409       .  A
C755        C760   1.412       .  A
C755        C773   1.451       .  S
C756        C757   1.409       .  A
C756        C761   1.497       .  S
C757        C758   1.411       .  A
C757        C762   1.451       .  S
C758        C759   1.418       .  A
C758        C774   1.451       .  S
C759        C760   1.418       .  A
C760        C763   1.450       .  S
C761        C764   1.410       .  A
C761        C768   1.410       .  A
C762        N779   1.157       .  T
C763        N781   1.157       .  T
C764        C765   1.412       .  A
C764        C769   1.450       .  S
C765        C766   1.415       .  A
C765        C771   1.451       .  S
C766        C767   1.415       .  A
C767        C768   1.410       .  A
C767        C770   1.452       .  S
C768        C772   1.451       .  S
C769        N776   1.157       .  T
C770        N777   1.157       .  T
C771        N775   1.157       .  T
C772        N778   1.157       .  T
C773        N782   1.157       .  T
C774        N780   1.157       .  T
C783        C784   1.409       .  A
C783        C788   1.411       .  A
C783        C801   1.451       .  S
C784        C785   1.410       .  A
C784        C789   1.497       .  S
C785        C786   1.411       .  A
C785        C790   1.451       .  S
C786        C787   1.417       .  A
C786        C802   1.450       .  S
C787        C788   1.419       .  A
C788        C791   1.452       .  S
C789        C792   1.410       .  A
C789        C796   1.410       .  A
C790        N807   1.157       .  T
C791        N809   1.157       .  T
C792        C793   1.410       .  A
C792        C797   1.452       .  S
C793        C794   1.416       .  A
C793        C799   1.451       .  S
C794        C795   1.417       .  A
C795        C796   1.413       .  A
C795        C798   1.450       .  S
C796        C800   1.450       .  S
C797        N804   1.157       .  T
C798        N805   1.157       .  T
C799        N803   1.157       .  T
C800        N806   1.157       .  T
C801        N810   1.157       .  T
C802        N808   1.157       .  T
C811        C812   1.412       .  A
C811        C816   1.414       .  A
C811        C829   1.450       .  S
C812        C813   1.411       .  A
C812        C817   1.503       .  S
C813        C814   1.414       .  A
C813        C818   1.450       .  S
C814        C815   1.415       .  A
C814        C830   1.450       .  S
C815        C816   1.415       .  A
C816        C819   1.450       .  S
C817        C820   1.408       .  A
C817        C824   1.408       .  A
C818        N835   1.157       .  T
C819        N837   1.157       .  T
C820        C821   1.415       .  A
C820        C825   1.452       .  S
C821        C822   1.427       .  A
C821        C827   1.451       .  S
C822        C823   1.426       .  A
C823        C824   1.415       .  A
C823        C826   1.450       .  S
C824        C828   1.452       .  S
C825        N832   1.157       .  T
C826        N833   1.157       .  T
C827        N831   1.158       .  T
C828        N834   1.157       .  T
C829        N838   1.157       .  T
C830        N836   1.157       .  T
C839        C840   1.411       .  A
C839        C844   1.411       .  A
C839        C857   1.451       .  S
C840        C841   1.412       .  A
C840        C845   1.497       .  S
C841        C842   1.409       .  A
C841        C846   1.452       .  S
C842        C843   1.415       .  A
C842        C858   1.451       .  S
C843        C844   1.415       .  A
C844        C847   1.451       .  S
C845        C848   1.412       .  A
C845        C852   1.411       .  A
C846        N863   1.157       .  T
C847        N865   1.157       .  T
C848        C849   1.410       .  A
C848        C853   1.451       .  S
C849        C850   1.415       .  A
C849        C855   1.451       .  S
C850        C851   1.416       .  A
C851        C852   1.409       .  A
C851        C854   1.452       .  S
C852        C856   1.451       .  S
C853        N860   1.157       .  T
C854        N861   1.157       .  T
C855        N859   1.157       .  T
C856        N862   1.157       .  T
C857        N866   1.157       .  T
C858        N864   1.157       .  T
C867        C868   1.408       .  A
C867        C872   1.409       .  A
C867        C885   1.451       .  S
C868        C869   1.408       .  A
C868        C873   1.491       .  S
C869        C870   1.409       .  A
C869        C874   1.451       .  S
C870        C871   1.417       .  A
C870        C886   1.451       .  S
C871        C872   1.417       .  A
C872        C875   1.451       .  S
C873        C876   1.410       .  A
C873        C880   1.410       .  A
C874        N891   1.157       .  T
C875        N893   1.157       .  T
C876        C877   1.408       .  A
C876        C881   1.451       .  S
C877        C878   1.412       .  A
C877        C883   1.451       .  S
C878        C879   1.411       .  A
C879        C880   1.410       .  A
C879        C882   1.450       .  S
C880        C884   1.450       .  S
C881        N888   1.157       .  T
C882        N889   1.157       .  T
C883        N887   1.157       .  T
C884        N890   1.157       .  T
C885        N894   1.157       .  T
C886        N892   1.157       .  T
C895        C896   1.410   1_455  A
C895        C900   1.413       .  A
C895        C913   1.452       .  S
C896        C897   1.411   1_655  A
C896        C901   1.502       .  S
C897        C898   1.413       .  A
C897        C902   1.451   1_455  S
C898        C899   1.419       .  A
C898        C914   1.450       .  S
C899        C900   1.420       .  A
C900        C903   1.451       .  S
C901        C904   1.413       .  A
C901        C908   1.412       .  A
C902        N919   1.157       .  T
C903        N921   1.157       .  T
C904        C905   1.413       .  A
C904        C909   1.450       .  S
C905        C906   1.413       .  A
C905        C911   1.451       .  S
C906        C907   1.416       .  A
C907        C908   1.411       .  A
C907        C910   1.452       .  S
C908        C912   1.451       .  S
C909        N916   1.157       .  T
C910        N917   1.158       .  T
C911        N915   1.157       .  T
C912        N918   1.157   1_655  T
C913        N922   1.157   1_455  T
C914        N920   1.157       .  T
C923        C924   1.409       .  A
C923        C928   1.415   1_545  A
C923        C941   1.451       .  S
C924        C925   1.410   1_545  A
C924        C929   1.500       .  S
C925        C926   1.412       .  A
C925        C930   1.451       .  S
C926        C927   1.417       .  A
C926        C942   1.450       .  S
C927        C928   1.419       .  A
C928        C931   1.450       .  S
C929        C932   1.411       .  A
C929        C936   1.411       .  A
C930        N947   1.157       .  T
C931        N949   1.157       .  T
C932        C933   1.413       .  A
C932        C937   1.450       .  S
C933        C934   1.415       .  A
C933        C939   1.451       .  S
C934        C935   1.414       .  A
C935        C936   1.413       .  A
C935        C938   1.451       .  S
C936        C940   1.450       .  S
C937        N944   1.157       .  T
C938        N945   1.157       .  T
C939        N943   1.157       .  T
C940        N946   1.157       .  T
C941        N950   1.157       .  T
C942        N948   1.157       .  T
C951        C952   1.410       .  A
C951        C956   1.412       .  A
C951        C969   1.451       .  S
C952        C953   1.409       .  A
C952        C957   1.496       .  S
C953        C954   1.409       .  A
C953        C958   1.451       .  S
C954        C955   1.417       .  A
C954        C970   1.451       .  S
C955        C956   1.417       .  A
C956        C959   1.451       .  S
C957        C960   1.411       .  A
C957        C964   1.412       .  A
C958        N975   1.157       .  T
C959        N977   1.157       .  T
C960        C961   1.411       .  A
C960        C965   1.450       .  S
C961        C962   1.414       .  A
C961        C967   1.451       .  S
C962        C963   1.413       .  A
C963        C964   1.409       .  A
C963        C966   1.451       .  S
C964        C968   1.451       .  S
C965        N972   1.157       .  T
C966        N973   1.157       .  T
C967        N971   1.157       .  T
C968        N974   1.157       .  T
C969        N978   1.157       .  T
C970        N976   1.157       .  T
C979        C980   1.413       .  A
C979        C984   1.413       .  A
C979        C997   1.451       .  S
C980        C981   1.412       .  A
C980        C985   1.503       .  S
C981        C982   1.413       .  A
C981        C986   1.451       .  S
C982        C983   1.416       .  A
C982        C998   1.451       .  S
C983        C984   1.415       .  A
C984        C987   1.450       .  S
C985        C988   1.412       .  A
C985        C992   1.412       .  A
C986       N1003   1.157       .  T
C987       N1005   1.157       .  T
C988        C989   1.412       .  A
C988        C993   1.451       .  S
C989        C990   1.416       .  A
C989        C995   1.451       .  S
C990        C991   1.417       .  A
C991        C992   1.413       .  A
C991        C994   1.451       .  S
C992        C996   1.451       .  S
C993       N1000   1.157       .  T
C994       N1001   1.157       .  T
C995        N999   1.157       .  T
C996       N1002   1.157       .  T
C997       N1006   1.157       .  T
C998       N1004   1.157       .  T
C1007      C1008   1.408       .  A
C1007      C1012   1.410       .  A
C1007      C1025   1.451       .  S
C1008      C1009   1.409       .  A
C1008      C1013   1.494   1_655  S
C1009      C1010   1.411       .  A
C1009      C1014   1.451       .  S
C1010      C1011   1.419       .  A
C1010      C1026   1.451       .  S
C1011      C1012   1.419       .  A
C1012      C1015   1.452       .  S
C1013      C1016   1.410       .  A
C1013      C1020   1.410       .  A
C1014      N1031   1.157       .  T
C1015      N1033   1.157       .  T
C1016      C1017   1.410       .  A
C1016      C1021   1.451       .  S
C1017      C1018   1.415       .  A
C1017      C1023   1.451       .  S
C1018      C1019   1.414       .  A
C1019      C1020   1.410       .  A
C1019      C1022   1.451       .  S
C1020      C1024   1.451   1_455  S
C1021      N1028   1.157   1_455  T
C1022      N1029   1.157       .  T
C1023      N1027   1.157       .  T
C1024      N1030   1.157       .  T
C1025      N1034   1.157   1_655  T
C1026      N1032   1.157       .  T
C1035      C1036   1.410   1_565  A
C1035      C1040   1.410       .  A
C1035      C1053   1.450       .  S
C1036      C1037   1.411       .  A
C1036      C1041   1.495       .  S
C1037      C1038   1.410   1_545  A
C1037      C1042   1.451       .  S
C1038      C1039   1.413       .  A
C1038      C1054   1.451       .  S
C1039      C1040   1.413       .  A
C1040      C1043   1.451       .  S
C1041      C1044   1.409       .  A
C1041      C1048   1.409       .  A
C1042      N1059   1.157       .  T
C1043      N1061   1.157       .  T
C1044      C1045   1.412       .  A
C1044      C1049   1.451       .  S
C1045      C1046   1.418       .  A
C1045      C1051   1.450       .  S
C1046      C1047   1.419       .  A
C1047      C1048   1.410       .  A
C1047      C1050   1.452       .  S
C1048      C1052   1.451       .  S
C1049      N1056   1.157       .  T
C1050      N1057   1.157       .  T
C1051      N1055   1.157       .  T
C1052      N1058   1.157       .  T
C1053      N1062   1.157       .  T
C1054      N1060   1.157       .  T
C1063      C1064   1.411       .  A
C1063      C1068   1.410       .  A
C1063      C1081   1.450       .  S
C1064      C1065   1.412       .  A
C1064      C1069   1.495       .  S
C1065      C1066   1.410       .  A
C1065      C1070   1.450       .  S
C1066      C1067   1.411       .  A
C1066      C1082   1.451       .  S
C1067      C1068   1.412       .  A
C1068      C1071   1.451       .  S
C1069      C1072   1.410       .  A
C1069      C1076   1.410       .  A
C1070      N1087   1.157       .  T
C1071      N1089   1.157       .  T
C1072      C1073   1.411       .  A
C1072      C1077   1.451       .  S
C1073      C1074   1.415       .  A
C1073      C1079   1.450       .  S
C1074      C1075   1.415       .  A
C1075      C1076   1.410       .  A
C1075      C1078   1.452       .  S
C1076      C1080   1.451       .  S
C1077      N1084   1.157       .  T
C1078      N1085   1.157       .  T
C1079      N1083   1.157       .  T
C1080      N1086   1.157       .  T
C1081      N1090   1.157       .  T
C1082      N1088   1.157       .  T
C1091      C1092   1.410       .  A
C1091      C1096   1.408       .  A
C1091      C1109   1.451       .  S
C1092      C1093   1.409       .  A
C1092      C1097   1.491       .  S
C1093      C1094   1.409       .  A
C1093      C1098   1.451       .  S
C1094      C1095   1.415       .  A
C1094      C1110   1.451       .  S
C1095      C1096   1.414       .  A
C1096      C1099   1.451       .  S
C1097      C1100   1.409       .  A
C1097      C1104   1.408       .  A
C1098      N1115   1.157       .  T
C1099      N1117   1.157       .  T
C1100      C1101   1.409       .  A
C1100      C1105   1.451       .  S
C1101      C1102   1.415       .  A
C1101      C1107   1.449       .  S
C1102      C1103   1.418       .  A
C1103      C1104   1.409       .  A
C1103      C1106   1.452       .  S
C1104      C1108   1.451       .  S
C1105      N1112   1.157       .  T
C1106      N1113   1.157       .  T
C1107      N1111   1.157       .  T
C1108      N1114   1.157       .  T
C1109      N1118   1.157       .  T
C1110      N1116   1.157       .  T
C1119      C1120   1.410       .  A
C1119      C1124   1.410       .  A
C1119      C1137   1.451       .  S
C1120      C1121   1.412       .  A
C1120      C1125   1.497       .  S
C1121      C1122   1.411       .  A
C1121      C1126   1.451       .  S
C1122      C1123   1.414       .  A
C1122      C1138   1.451       .  S
C1123      C1124   1.416       .  A
C1124      C1127   1.452       .  S
C1125      C1128   1.411       .  A
C1125      C1132   1.410       .  A
C1126      N1143   1.157       .  T
C1127      N1145   1.157       .  T
C1128      C1129   1.412       .  A
C1128      C1133   1.450       .  S
C1129      C1130   1.414       .  A
C1129      C1135   1.450       .  S
C1130      C1131   1.416       .  A
C1131      C1132   1.409       .  A
C1131      C1134   1.451       .  S
C1132      C1136   1.451       .  S
C1133      N1140   1.157       .  T
C1134      N1141   1.157       .  T
C1135      N1139   1.157   1_655  T
C1136      N1142   1.157       .  T
C1137      N1146   1.157       .  T
C1138      N1144   1.157       .  T
C1147      C1148   1.411       .  A
C1147      C1152   1.411       .  A
C1147      C1165   1.451       .  S
C1148      C1149   1.412       .  A
C1148      C1153   1.500       .  S
C1149      C1150   1.411       .  A
C1149      C1154   1.452       .  S
C1150      C1151   1.416       .  A
C1150      C1166   1.451       .  S
C1151      C1152   1.418       .  A
C1152      C1155   1.452       .  S
C1153      C1156   1.412       .  A
C1153      C1160   1.412       .  A
C1154      N1171   1.157       .  T
C1155      N1173   1.157       .  T
C1156      C1157   1.411       .  A
C1156      C1161   1.451       .  S
C1157      C1158   1.416       .  A
C1157      C1163   1.451       .  S
C1158      C1159   1.416       .  A
C1159      C1160   1.411       .  A
C1159      C1162   1.451       .  S
C1160      C1164   1.451       .  S
C1161      N1168   1.157       .  T
C1162      N1169   1.157       .  T
C1163      N1167   1.157       .  T
C1164      N1170   1.157       .  T
C1165      N1174   1.157       .  T
C1166      N1172   1.157       .  T
C1175      C1176   1.409       .  A
C1175      C1180   1.410       .  A
C1175      C1193   1.451       .  S
C1176      C1177   1.410       .  A
C1176      C1181   1.493       .  S
C1177      C1178   1.410       .  A
C1177      C1182   1.451       .  S
C1178      C1179   1.416       .  A
C1178      C1194   1.451       .  S
C1179      C1180   1.416       .  A
C1180      C1183   1.451       .  S
C1181      C1184   1.411       .  A
C1181      C1188   1.409       .  A
C1182      N1199   1.157       .  T
C1183      N1201   1.157       .  T
C1184      C1185   1.411       .  A
C1184      C1189   1.450       .  S
C1185      C1186   1.414       .  A
C1185      C1191   1.451       .  S
C1186      C1187   1.414       .  A
C1187      C1188   1.408       .  A
C1187      C1190   1.451       .  S
C1188      C1192   1.451       .  S
C1189      N1196   1.157       .  T
C1190      N1197   1.157       .  T
C1191      N1195   1.157       .  T
C1192      N1198   1.157       .  T
C1193      N1202   1.157       .  T
C1194      N1200   1.157       .  T
C1203      C1204   1.410       .  A
C1203      C1208   1.410       .  A
C1203      C1221   1.451       .  S
C1204      C1205   1.411       .  A
C1204      C1209   1.496       .  S
C1205      C1206   1.411       .  A
C1205      C1210   1.450       .  S
C1206      C1207   1.413       .  A
C1206      C1222   1.450       .  S
C1207      C1208   1.414       .  A
C1208      C1211   1.451       .  S
C1209      C1212   1.406       .  A
C1209      C1216   1.406       .  A
C1210      N1227   1.157       .  T
C1211      N1229   1.157       .  T
C1212      C1213   1.413       .  A
C1212      C1217   1.452       .  S
C1213      C1214   1.427       .  A
C1213      C1219   1.451       .  S
C1214      C1215   1.427       .  A
C1215      C1216   1.411       .  A
C1215      C1218   1.452       .  S
C1216      C1220   1.452       .  S
C1217      N1224   1.157       .  T
C1218      N1225   1.158       .  T
C1219      N1223   1.158       .  T
C1220      N1226   1.157       .  T
C1221      N1230   1.157       .  T
C1222      N1228   1.157       .  T
C1231      C1232   1.411       .  A
C1231      C1236   1.411       .  A
C1231      C1249   1.450       .  S
C1232      C1233   1.411       .  A
C1232      C1237   1.497       .  S
C1233      C1234   1.410       .  A
C1233      C1238   1.451       .  S
C1234      C1235   1.414       .  A
C1234      C1250   1.451       .  S
C1235      C1236   1.414       .  A
C1236      C1239   1.451       .  S
C1237      C1240   1.410       .  A
C1237      C1244   1.410       .  A
C1238      N1255   1.157       .  T
C1239      N1257   1.157       .  T
C1240      C1241   1.412       .  A
C1240      C1245   1.451       .  S
C1241      C1242   1.417   1_455  A
C1241      C1247   1.451   1_455  S
C1242      C1243   1.416   1_655  A
C1243      C1244   1.410       .  A
C1243      C1246   1.451   1_455  S
C1244      C1248   1.451       .  S
C1245      N1252   1.157       .  T
C1246      N1253   1.157       .  T
C1247      N1251   1.157       .  T
C1248      N1254   1.157       .  T
C1249      N1258   1.157       .  T
C1250      N1256   1.157       .  T
C1259      C1260   1.411       .  A
C1259      C1264   1.413       .  A
C1259      C1277   1.450       .  S
C1260      C1261   1.411       .  A
C1260      C1265   1.500       .  S
C1261      C1262   1.412       .  A
C1261      C1266   1.450       .  S
C1262      C1263   1.414       .  A
C1262      C1278   1.451       .  S
C1263      C1264   1.415       .  A
C1264      C1267   1.451       .  S
C1265      C1268   1.411       .  A
C1265      C1272   1.410       .  A
C1266      N1283   1.157       .  T
C1267      N1285   1.157       .  T
C1268      C1269   1.413   1_565  A
C1268      C1273   1.451       .  S
C1269      C1270   1.415       .  A
C1269      C1275   1.450       .  S
C1270      C1271   1.416   1_545  A
C1271      C1272   1.413       .  A
C1271      C1274   1.450   1_565  S
C1272      C1276   1.450       .  S
C1273      N1280   1.157       .  T
C1274      N1281   1.157       .  T
C1275      N1279   1.157       .  T
C1276      N1282   1.157       .  T
C1277      N1286   1.157       .  T
C1278      N1284   1.157       .  T
C1287      C1288   1.411       .  A
C1287      C1292   1.411       .  A
C1287      C1305   1.450       .  S
C1288      C1289   1.411       .  A
C1288      C1293   1.498       .  S
C1289      C1290   1.411       .  A
C1289      C1294   1.451       .  S
C1290      C1291   1.415       .  A
C1290      C1306   1.451       .  S
C1291      C1292   1.415       .  A
C1292      C1295   1.451       .  S
C1293      C1296   1.410       .  A
C1293      C1300   1.409       .  A
C1294      N1311   1.157       .  T
C1295      N1313   1.157       .  T
C1296      C1297   1.413       .  A
C1296      C1301   1.451       .  S
C1297      C1298   1.417       .  A
C1297      C1303   1.450       .  S
C1298      C1299   1.418       .  A
C1299      C1300   1.411       .  A
C1299      C1302   1.451       .  S
C1300      C1304   1.451       .  S
C1301      N1308   1.157       .  T
C1302      N1309   1.157       .  T
C1303      N1307   1.157       .  T
C1304      N1310   1.157       .  T
C1305      N1314   1.157       .  T
C1306      N1312   1.157       .  T
C1315      C1316   1.411       .  A
C1315      C1320   1.413       .  A
C1315      C1333   1.450       .  S
C1316      C1317   1.410       .  A
C1316      C1321   1.499       .  S
C1317      C1318   1.411       .  A
C1317      C1322   1.451       .  S
C1318      C1319   1.415       .  A
C1318      C1334   1.451       .  S
C1319      C1320   1.415       .  A
C1320      C1323   1.451       .  S
C1321      C1324   1.410       .  A
C1321      C1328   1.410       .  A
C1322      N1339   1.157       .  T
C1323      N1341   1.157       .  T
C1324      C1325   1.412       .  A
C1324      C1329   1.450       .  S
C1325      C1326   1.415       .  A
C1325      C1331   1.450       .  S
C1326      C1327   1.416       .  A
C1327      C1328   1.412       .  A
C1327      C1330   1.451       .  S
C1328      C1332   1.451       .  S
C1329      N1336   1.157       .  T
C1330      N1337   1.157       .  T
C1331      N1335   1.157       .  T
C1332      N1338   1.157       .  T
C1333      N1342   1.157       .  T
C1334      N1340   1.157       .  T
C1343      C1344   1.411       .  A
C1343      C1348   1.410       .  A
C1343      C1361   1.451       .  S
C1344      C1345   1.411       .  A
C1344      C1349   1.495       .  S
C1345      C1346   1.409       .  A
C1345      C1350   1.452       .  S
C1346      C1347   1.416       .  A
C1346      C1362   1.451       .  S
C1347      C1348   1.415       .  A
C1348      C1351   1.451       .  S
C1349      C1352   1.412       .  A
C1349      C1356   1.412       .  A
C1350      N1367   1.157       .  T
C1351      N1369   1.157       .  T
C1352      C1353   1.409       .  A
C1352      C1357   1.451       .  S
C1353      C1354   1.413       .  A
C1353      C1359   1.452       .  S
C1354      C1355   1.413       .  A
C1355      C1356   1.410       .  A
C1355      C1358   1.451       .  S
C1356      C1360   1.451       .  S
C1357      N1364   1.157       .  T
C1358      N1365   1.157       .  T
C1359      N1363   1.157       .  T
C1360      N1366   1.157       .  T
C1361      N1370   1.157       .  T
C1362      N1368   1.157       .  T
C1371      C1372   1.411       .  A
C1371      C1376   1.411       .  A
C1371      C1389   1.451       .  S
C1372      C1373   1.411       .  A
C1372      C1377   1.498       .  S
C1373      C1374   1.412       .  A
C1373      C1378   1.451       .  S
C1374      C1375   1.416       .  A
C1374      C1390   1.451       .  S
C1375      C1376   1.415       .  A
C1376      C1379   1.450       .  S
C1377      C1380   1.412       .  A
C1377      C1384   1.412       .  A
C1378      N1395   1.157       .  T
C1379      N1397   1.157       .  T
C1380      C1381   1.411       .  A
C1380      C1385   1.450       .  S
C1381      C1382   1.413       .  A
C1381      C1387   1.451       .  S
C1382      C1383   1.413       .  A
C1383      C1384   1.410       .  A
C1383      C1386   1.452       .  S
C1384      C1388   1.450       .  S
C1385      N1392   1.157       .  T
C1386      N1393   1.157       .  T
C1387      N1391   1.157       .  T
C1388      N1394   1.157       .  T
C1389      N1398   1.157       .  T
C1390      N1396   1.157       .  T
C1399      C1400   1.411       .  A
C1399      C1404   1.410       .  A
C1399      C1417   1.451       .  S
C1400      C1401   1.411       .  A
C1400      C1405   1.494       .  S
C1401      C1402   1.409       .  A
C1401      C1406   1.450       .  S
C1402      C1403   1.412       .  A
C1402      C1418   1.452       .  S
C1403      C1404   1.413       .  A
C1404      C1407   1.452       .  S
C1405      C1408   1.410       .  A
C1405      C1412   1.410       .  A
C1406      N1423   1.157       .  T
C1407      N1425   1.157       .  T
C1408      C1409   1.411       .  A
C1408      C1413   1.451       .  S
C1409      C1410   1.415       .  A
C1409      C1415   1.451       .  S
C1410      C1411   1.415       .  A
C1411      C1412   1.410       .  A
C1411      C1414   1.451       .  S
C1412      C1416   1.451       .  S
C1413      N1420   1.157       .  T
C1414      N1421   1.157       .  T
C1415      N1419   1.157       .  T
C1416      N1422   1.157       .  T
C1417      N1426   1.157       .  T
C1418      N1424   1.157       .  T
C1427      C1428   1.409       .  A
C1427      C1432   1.410       .  A
C1427      C1445   1.451       .  S
C1428      C1429   1.410       .  A
C1428      C1433   1.492       .  S
C1429      C1430   1.410       .  A
C1429      C1434   1.451       .  S
C1430      C1431   1.415       .  A
C1430      C1446   1.451       .  S
C1431      C1432   1.416       .  A
C1432      C1435   1.451       .  S
C1433      C1436   1.409       .  A
C1433      C1440   1.410       .  A
C1434      N1451   1.157       .  T
C1435      N1453   1.157       .  T
C1436      C1437   1.410       .  A
C1436      C1441   1.451       .  S
C1437      C1438   1.415       .  A
C1437      C1443   1.451       .  S
C1438      C1439   1.415       .  A
C1439      C1440   1.410       .  A
C1439      C1442   1.451       .  S
C1440      C1444   1.451       .  S
C1441      N1448   1.157       .  T
C1442      N1449   1.157       .  T
C1443      N1447   1.157       .  T
C1444      N1450   1.157       .  T
C1445      N1454   1.157       .  T
C1446      N1452   1.157       .  T
C1455      C1456   1.410       .  A
C1455      C1460   1.411       .  A
C1455      C1473   1.451       .  S
C1456      C1457   1.410       .  A
C1456      C1461   1.497       .  S
C1457      C1458   1.411       .  A
C1457      C1462   1.451       .  S
C1458      C1459   1.417       .  A
C1458      C1474   1.451       .  S
C1459      C1460   1.418       .  A
C1460      C1463   1.451       .  S
C1461      C1464   1.412       .  A
C1461      C1468   1.412       .  A
C1462      N1479   1.157       .  T
C1463      N1481   1.157       .  T
C1464      C1465   1.410       .  A
C1464      C1469   1.451       .  S
C1465      C1466   1.414       .  A
C1465      C1471   1.452       .  S
C1466      C1467   1.413       .  A
C1467      C1468   1.410       .  A
C1467      C1470   1.452       .  S
C1468      C1472   1.451       .  S
C1469      N1476   1.157       .  T
C1470      N1477   1.157       .  T
C1471      N1475   1.157       .  T
C1472      N1478   1.157       .  T
C1473      N1482   1.157       .  T
C1474      N1480   1.157       .  T
C1483      C1484   1.413       .  A
C1483      C1488   1.411       .  A
C1483      C1501   1.451       .  S
C1484      C1485   1.413       .  A
C1484      C1489   1.502       .  S
C1485      C1486   1.413       .  A
C1485      C1490   1.450       .  S
C1486      C1487   1.412       .  A
C1486      C1502   1.450       .  S
C1487      C1488   1.411       .  A
C1488      C1491   1.450       .  S
C1489      C1492   1.411       .  A
C1489      C1496   1.410       .  A
C1490      N1507   1.157       .  T
C1491      N1509   1.157       .  T
C1492      C1493   1.414       .  A
C1492      C1497   1.451       .  S
C1493      C1494   1.419       .  A
C1493      C1499   1.451       .  S
C1494      C1495   1.419       .  A
C1495      C1496   1.411       .  A
C1495      C1498   1.451       .  S
C1496      C1500   1.451       .  S
C1497      N1504   1.157       .  T
C1498      N1505   1.157       .  T
C1499      N1503   1.158       .  T
C1500      N1506   1.157       .  T
C1501      N1510   1.157       .  T
C1502      N1508   1.157       .  T
C1511      C1512   1.409       .  A
C1511      C1516   1.415       .  A
C1511      C1529   1.452       .  S
C1512      C1513   1.406       .  A
C1512      C1517   1.501       .  S
C1513      C1514   1.412       .  A
C1513      C1518   1.453       .  S
C1514      C1515   1.427       .  A
C1514      C1530   1.451       .  S
C1515      C1516   1.424       .  A
C1516      C1519   1.451       .  S
C1517      C1520   1.411       .  A
C1517      C1524   1.412       .  A
C1518      N1535   1.157       .  T
C1519      N1537   1.158       .  T
C1520      C1521   1.412       .  A
C1520      C1525   1.450       .  S
C1521      C1522   1.415       .  A
C1521      C1527   1.450       .  S
C1522      C1523   1.415       .  A
C1523      C1524   1.411       .  A
C1523      C1526   1.451       .  S
C1524      C1528   1.451       .  S
C1525      N1532   1.157       .  T
C1526      N1533   1.157       .  T
C1527      N1531   1.157       .  T
C1528      N1534   1.157       .  T
C1529      N1538   1.157       .  T
C1530      N1536   1.157       .  T
C1539      C1540   1.413       .  A
C1539      C1544   1.412       .  A
C1539      C1557   1.450       .  S
C1540      C1541   1.414       .  A
C1540      C1545   1.501       .  S
C1541      C1542   1.410       .  A
C1541      C1546   1.451       .  S
C1542      C1543   1.411       .  A
C1542      C1558   1.451       .  S
C1543      C1544   1.412       .  A
C1544      C1547   1.450       .  S
C1545      C1548   1.411       .  A
C1545      C1552   1.410       .  A
C1546      N1563   1.157       .  T
C1547      N1565   1.157       .  T
C1548      C1549   1.413       .  A
C1548      C1553   1.451       .  S
C1549      C1550   1.419       .  A
C1549      C1555   1.451       .  S
C1550      C1551   1.420       .  A
C1551      C1552   1.411       .  A
C1551      C1554   1.451       .  S
C1552      C1556   1.452       .  S
C1553      N1560   1.157       .  T
C1554      N1561   1.158       .  T
C1555      N1559   1.158       .  T
C1556      N1562   1.157       .  T
C1557      N1566   1.157       .  T
C1558      N1564   1.157       .  T
