geometry optimzed in LAMMPS
_audit_creation_date              2020-11-30 
_audit_creation_method            'lammps2cif' 
_symmetry_space_group_name_H-M    'P1' 
_symmetry_Int_Tables_number       1 
_symmetry_cell_setting            triclinic 
loop_ 
_symmetry_equiv_pos_as_xyz 
  x,y,z 
_cell_length_a                    27.36274928 
_cell_length_b                    27.52211077469736 
_cell_length_c                    27.4112027695509 
_cell_angle_alpha                 90.040715438807 
_cell_angle_beta                  90.0180002441746 
_cell_angle_gamma                 89.96054727951176 
loop_ 
_atom_site_label 
_atom_site_type_symbol 
_atom_site_fract_x 
_atom_site_fract_y 
_atom_site_fract_z 
_atom_site_charge 
O1          O  0.00396682  0.08490844  0.13635878    -0.86400
O2          O  0.99684569  0.07643136  0.86002762    -0.86500
O3          O  0.07923102  0.14064054  0.99722759    -0.88200
O4          O  0.91866181  0.13893676  0.99657297    -0.86900
O5          O  0.86137901  0.07825778  0.00138335    -0.86500
O6          O  0.13745837  0.08058833  0.99777492    -0.87900
O7          O  0.99801406  0.13763284  0.91700056    -0.86400
O8          O  0.99936550  0.14213040  0.07545346    -0.86000
Zr9        Zr  0.99935565  0.10016378  0.99775286     2.84300
O10         O  0.94933093  0.04906459  0.95142733    -1.07900
O11         O  0.04998691  0.05288200  0.04795715    -1.08700
C12         C  0.00168255  0.12922023  0.12060271     1.06800
C13         C  0.99708578  0.12158075  0.87265540     1.06700
C14         C  0.12404596  0.12551974  0.99737865     1.09700
C15         C  0.87410862  0.12322419  0.99834461     1.07500
H16         H  0.06826264  0.06962781  0.92771965     0.33000
O17         O  0.04806509  0.05005184  0.94882261    -1.28900
H18         H  0.93168342  0.07236602  0.07066506     0.32700
O19         O  0.95202179  0.05201328  0.05039978    -1.30600
O20         O  0.99563437  0.92023682  0.86323670    -0.86300
O21         O  0.00462834  0.92520008  0.14081689    -0.87800
O22         O  0.13609678  0.99896992  0.92044841    -0.86400
O23         O  0.85920689  0.99959675  0.92670805    -0.86500
O24         O  0.86419623  0.00095756  0.08405276    -0.86200
O25         O  0.14002424  0.00331116  0.07655441    -0.86000
O26         O  0.08250001  0.86399424  0.99897413    -0.86400
O27         O  0.92066881  0.86223655  0.00782388    -0.85800
O28         O  0.13982496  0.92487914  0.99821637    -0.86900
O29         O  0.86261345  0.92249712  0.00944557    -0.86000
O30         O  0.07740268  0.99703126  0.86069805    -0.86400
O31         O  0.08291436  0.00526100  0.13771086    -0.86200
O32         O  0.92501729  0.00198454  0.14163797    -0.85800
O33         O  0.91622889  0.00001393  0.86532274    -0.86200
O34         O  0.99925987  0.86092857  0.92211294    -0.86500
O35         O  0.00414927  0.86406602  0.08356364    -0.87900
Zr36       Zr  0.99784571  0.99905743  0.90234212     2.83100
Zr37       Zr  0.00291381  0.00378533  0.09920118     2.83500
Zr38       Zr  0.09726191  0.00204116  0.99911220     2.84100
Zr39       Zr  0.90287240  0.00054990  0.00382801     2.83400
Zr40       Zr  0.00114417  0.90164873  0.00239383     2.84200
O41         O  0.95357230  0.95246942  0.05223785    -1.08400
O42         O  0.04845028  0.95108012  0.95143519    -1.07900
C43         C  0.99668845  0.87552316  0.87716488     1.06700
C44         C  0.00489083  0.87990859  0.12810363     1.09300
C45         C  0.12233113  0.99721828  0.87562501     1.06900
C46         C  0.87171028  0.99997604  0.88134459     1.07300
C47         C  0.87972992  0.00093603  0.12857561     1.02000
C48         C  0.12728960  0.00454150  0.12179514     1.06400
C49         C  0.12707782  0.87980827  0.99782917     1.06800
C50         C  0.87593222  0.87759247  0.01030933     1.06300
H51         H  0.07208696  0.93333963  0.07024679     0.33000
O52         O  0.05069933  0.95276013  0.05013502    -1.29500
H53         H  0.92892613  0.92968182  0.93446179     0.33000
O54         O  0.95015743  0.95013461  0.95370032    -1.30900
O55         O  0.00554425  0.41787848  0.36333468    -0.86400
O56         O  0.99287804  0.42207774  0.63956151    -0.86500
O57         O  0.08212519  0.36162684  0.50627717    -0.88200
O58         O  0.92347007  0.35912932  0.49967153    -0.86900
O59         O  0.86259712  0.41660180  0.49621943    -0.86500
O60         O  0.13987031  0.42202635  0.50632972    -0.87900
O61         O  0.99564102  0.36142741  0.58214771    -0.86400
O62         O  0.00708771  0.35997891  0.42363313    -0.86000
Zr63       Zr  0.00159547  0.40043849  0.50233304     2.84300
O64         O  0.94912435  0.44976391  0.54810931    -1.07900
O65         O  0.05174886  0.44896507  0.45361372    -1.08700
C66         C  0.00727617  0.37346473  0.37853993     1.06800
C67         C  0.99300012  0.37706551  0.62656063     1.06700
C68         C  0.12677084  0.37712374  0.50680607     1.09700
C69         C  0.87820677  0.37205136  0.49760198     1.07500
H70         H  0.06811176  0.43035464  0.57478838     0.33000
O71         O  0.04841388  0.45000371  0.55320550    -1.28900
H72         H  0.93380086  0.42738213  0.42945178     0.32700
O73         O  0.95303009  0.44816816  0.45036876    -1.30600
O74         O  0.99735041  0.57804851  0.63866046    -0.86300
O75         O  0.00197765  0.57597220  0.36141020    -0.87800
O76         O  0.13483182  0.50200602  0.58519529    -0.86400
O77         O  0.85792915  0.49658106  0.57414315    -0.86500
O78         O  0.86445381  0.49729341  0.41535401    -0.86200
O79         O  0.14108698  0.49764818  0.42644639    -0.86000
O80         O  0.08082561  0.63654874  0.50273045    -0.86400
O81         O  0.92092043  0.63634059  0.49672142    -0.85800
O82         O  0.13892818  0.57646339  0.50631091    -0.86900
O83         O  0.86082110  0.57804365  0.49446953    -0.86000
O84         O  0.07340771  0.50178797  0.64216766    -0.86400
O85         O  0.08415925  0.49729029  0.36495582    -0.86200
O86         O  0.92635839  0.49646052  0.35887569    -0.85800
O87         O  0.91517966  0.49918687  0.63533016    -0.86200
O88         O  0.99849998  0.63782323  0.58027691    -0.86500
O89         O  0.00045227  0.63640601  0.41922578    -0.87900
Zr90       Zr  0.99601331  0.49984255  0.59834026     2.83100
Zr91       Zr  0.00359136  0.49748044  0.40261058     2.83500
Zr92       Zr  0.09792830  0.49914184  0.50433525     2.84100
Zr93       Zr  0.90101034  0.49785446  0.49653471     2.83400
Zr94       Zr  0.00022222  0.59745121  0.49987037     2.84200
O95         O  0.95256274  0.54708888  0.44954989    -1.08400
O96         O  0.04727012  0.54877978  0.55133006    -1.07900
C97         C  0.99836100  0.62286104  0.62515106     1.06700
C98         C  0.00092504  0.62107081  0.37451562     1.09300
C99         C  0.11884932  0.50275248  0.62953242     1.06900
C100        C  0.87077262  0.49738672  0.61946080     1.07300
C101        C  0.88084835  0.49673452  0.37113034     1.06800
C102        C  0.12854906  0.49723010  0.38099608     1.06400
C103        C  0.12554569  0.62125651  0.50529674     1.06800
C104        C  0.87586225  0.62274746  0.49499254     1.06300
H105        H  0.07221096  0.56796931  0.43250635     0.33000
O106        O  0.05115843  0.54798412  0.45240568    -1.29500
H107        H  0.92718108  0.56867352  0.56673413     0.33000
O108        O  0.94828399  0.54841601  0.54710991    -1.30900
O109        O  0.63493455  0.99616072  0.41650380    -0.86400
O110        O  0.35848208  0.00228714  0.42482088    -0.86500
O111        O  0.49530403  0.91751483  0.36297034    -0.88200
O112        O  0.49373850  0.07858906  0.36158282    -0.86900
O113        O  0.49151155  0.13671823  0.42177335    -0.86500
O114        O  0.49770370  0.86010138  0.42379416    -0.87900
O115        O  0.41560463  0.00050262  0.36361408    -0.86400
O116        O  0.57381842  0.99701189  0.35907667    -0.86000
Zr117      Zr  0.49601949  0.99826825  0.40148952     2.84300
O118        O  0.44831924  0.04790653  0.45170418    -1.07900
O119        O  0.54572568  0.94914075  0.45067279    -1.08700
C120        C  0.61914204  0.99616980  0.37199126     1.06800
C121        C  0.37125933  0.00247566  0.37961479     1.06700
C122        C  0.49668191  0.87308949  0.37862431     1.09700
C123        C  0.49115675  0.12322885  0.37664751     1.07500
H124        H  0.42680144  0.92857138  0.43215612     0.33000
O125        O  0.44788045  0.94879392  0.45183616    -1.28900
H126        H  0.56610062  0.06785357  0.42866562     0.32700
O127        O  0.54644233  0.04760755  0.44973613    -1.30600
O128        O  0.36163487  0.99750009  0.58016843    -0.86300
O129        O  0.63927200  0.99873105  0.57605485    -0.87800
O130        O  0.41772554  0.86077268  0.50453695    -0.86400
O131        O  0.41786559  0.13637184  0.50289912    -0.86500
O132        O  0.57712023  0.13636351  0.49662834    -0.86200
O133        O  0.57579396  0.85986352  0.49866137    -0.86000
O134        O  0.50160890  0.92238899  0.64048098    -0.86400
O135        O  0.50389445  0.07764008  0.63914503    -0.85800
O136        O  0.50047074  0.86202986  0.58269084    -0.86900
O137        O  0.50213597  0.13722783  0.58064672    -0.86000
O138        O  0.35976917  0.92095994  0.50243278    -0.86400
O139        O  0.63650269  0.91738318  0.49595231    -0.86200
O140        O  0.63741496  0.07821025  0.49576325    -0.85800
O141        O  0.35975271  0.07634662  0.50392136    -0.86200
O142        O  0.42025353  0.99841709  0.64004539    -0.86500
O143        O  0.58157350  0.99957224  0.63694955    -0.87900
Zr144      Zr  0.40109034  0.99876509  0.50202700     2.83100
Zr145      Zr  0.59737521  0.99814875  0.49753606     2.83500
Zr146      Zr  0.49753372  0.90076510  0.50216555     2.84100
Zr147      Zr  0.49800595  0.09682617  0.50070677     2.83400
Zr148      Zr  0.50050346  0.99950249  0.59899520     2.84200
O149        O  0.54910210  0.04763482  0.54808920    -1.08400
O150        O  0.44950434  0.94989264  0.55205601    -1.07900
C151        C  0.37529600  0.99767125  0.62501512     1.06700
C152        C  0.62622943  0.99920764  0.62136915     1.09300
C153        C  0.37302183  0.87604438  0.50383185     1.06900
C154        C  0.37314161  0.12118991  0.50396028     1.07300
C155        C  0.62227689  0.12287029  0.49537978     1.06800
C156        C  0.62098761  0.87284876  0.49650880     1.06400
C157        C  0.50164694  0.87752134  0.62728834     1.06800
C158        C  0.50423203  0.12239987  0.62545877     1.06300
H159        H  0.56984929  0.92969959  0.56899939     0.33000
O160        O  0.54901268  0.94992062  0.54908018    -1.29500
H161        H  0.42970597  0.06864558  0.57207654     0.33000
O162        O  0.44976088  0.04848197  0.55129292    -1.30900
O163        O  0.41842534  0.36356722  0.99712434    -0.86400
O164        O  0.41979129  0.63915977  0.99556499    -0.86500
O165        O  0.35923745  0.50061069  0.07396669    -0.88200
O166        O  0.36570827  0.50306495  0.91479278    -0.86900
O167        O  0.42709301  0.50224018  0.85777684    -0.86500
O168        O  0.41586727  0.49949631  0.13575336    -0.87900
O169        O  0.36156121  0.57920892  0.99364874    -0.86400
O170        O  0.36083917  0.42423312  0.99481763    -0.86000
Zr171      Zr  0.40255236  0.50138075  0.99594655     2.84300
O172        O  0.45305656  0.55041532  0.94821822    -1.07900
O173        O  0.44915377  0.45137361  0.04681802    -1.08700
C174        C  0.37376794  0.37927348  0.99583854     1.06800
C175        C  0.37498604  0.62405920  0.99379470     1.06700
C176        C  0.37155626  0.49978039  0.11950382     1.09700
C177        C  0.38167234  0.50317298  0.87040142     1.07500
H178        H  0.42820168  0.57035494  0.06684162     0.33000
O179        O  0.44956232  0.55026404  0.04736307    -1.28900
H180        H  0.43250113  0.43164219  0.92669826     0.32700
O181        O  0.45235638  0.45144382  0.94794475    -1.30600
O182        O  0.58036596  0.63964101  0.00396538    -0.86300
O183        O  0.57954083  0.36179123  0.99924447    -0.87800
O184        O  0.49551105  0.58017208  0.13845267    -0.86400
O185        O  0.50557528  0.57859201  0.86124354    -0.86500
O186        O  0.50559384  0.42242017  0.86095417    -0.86200
O187        O  0.49445541  0.41955000  0.13805533    -0.86000
O188        O  0.63631213  0.50100555  0.08345525    -0.86400
O189        O  0.64221373  0.49988716  0.92675189    -0.85800
O190        O  0.57507017  0.50139389  0.14063078    -0.86900
O191        O  0.58544929  0.49904700  0.86515785    -0.86000
O192        O  0.49630199  0.63860040  0.07852453    -0.86400
O193        O  0.49829846  0.36166706  0.07766992    -0.86200
O194        O  0.50321994  0.36208084  0.91867616    -0.85800
O195        O  0.50248736  0.63885034  0.91914711    -0.86200
O196        O  0.63823867  0.57922424  0.00552302    -0.86500
O197        O  0.63758635  0.42192464  0.00233418    -0.87900
Zr198      Zr  0.50026965  0.59960709  0.99927374     2.83100
Zr199      Zr  0.49961482  0.40183210  0.99872086     2.83500
Zr200      Zr  0.49657897  0.50014951  0.09849805     2.84100
Zr201      Zr  0.50428511  0.50062852  0.90171263     2.83400
Zr202      Zr  0.59782338  0.50067494  0.00354418     2.84200
O203        O  0.55132038  0.45112726  0.95221374    -1.08400
O204        O  0.54709925  0.54996813  0.05092446    -1.07900
C205        C  0.62509266  0.62425999  0.00556836     1.06700
C206        C  0.62425860  0.37702640  0.00040842     1.09300
C207        C  0.49508869  0.62484368  0.12349149     1.06900
C208        C  0.50440136  0.62347259  0.87455412     1.07300
C209        C  0.50499971  0.37744040  0.87407542     1.06800
C210        C  0.49616526  0.37491039  0.12281703     1.06400
C211        C  0.62050087  0.50146321  0.12780604     1.06800
C212        C  0.62979573  0.49897312  0.88135734     1.06300
H213        H  0.56715849  0.43046281  0.07141347     0.33000
O214        O  0.54726757  0.45072873  0.05062092    -1.29500
H215        H  0.57306015  0.57039159  0.93253681     0.33000
O216        O  0.55170777  0.55041709  0.95206108    -1.30900
C217        C  0.47832863  0.23831857  0.29733698     0.16100
C218        C  0.47133687  0.28576176  0.27963786    -0.32900
C219        C  0.48427724  0.29527516  0.23097592     0.20500
C220        C  0.50291813  0.25890700  0.20127878     0.02700
C221        C  0.50964153  0.21145339  0.21888173    -0.22700
C222        C  0.49693652  0.20200114  0.26756102     0.11900
S223        S  0.46689499  0.22001996  0.35573675    -0.06300
C224        C  0.48746244  0.16271612  0.34011616    -0.09800
C225        C  0.50182836  0.15839984  0.29172570    -0.26400
S226        S  0.51614878  0.27738824  0.14340382    -0.03600
C227        C  0.49650761  0.33497448  0.15901943    -0.17100
C228        C  0.48075751  0.33918312  0.20702644    -0.15100
H229        H  0.45690350  0.31412426  0.30294633     0.20300
H230        H  0.52444746  0.18318845  0.19568441     0.16400
H231        H  0.51636919  0.12555867  0.27547683     0.18900
H232        H  0.46687680  0.37229730  0.22328838     0.12200
C233        C  0.48643519  0.73966972  0.20240821     0.16100
C234        C  0.48191203  0.78733020  0.21984372    -0.32900
C235        C  0.48987560  0.79520829  0.26969526     0.20500
C236        C  0.50152077  0.75719950  0.30081831     0.02700
C237        C  0.50587975  0.70947348  0.28340895    -0.22700
C238        C  0.49810540  0.70162426  0.23348068     0.11900
S239        S  0.47948604  0.72309307  0.14299405    -0.06300
C240        C  0.49259313  0.66414659  0.15991695    -0.09800
C241        C  0.50142092  0.65800189  0.20934571    -0.26400
S242        S  0.50961073  0.77415134  0.36002167    -0.03600
C243        C  0.49724499  0.83319835  0.34277836    -0.17100
C244        C  0.48752830  0.83902258  0.29351223    -0.15100
H245        H  0.47291127  0.81701851  0.19553150     0.20300
H246        H  0.51514621  0.67982904  0.30767591     0.16400
H247        H  0.51063550  0.62376057  0.22649470     0.18900
H248        H  0.47880534  0.87329074  0.27616366     0.12200
C249        C  0.50407967  0.80036721  0.74324103     0.16100
C250        C  0.50329274  0.78323895  0.79130041    -0.32900
C251        C  0.50476915  0.73288415  0.79818194     0.20500
C252        C  0.50727214  0.70110717  0.75894261     0.02700
C253        C  0.50812054  0.71823908  0.71091100    -0.22700
C254        C  0.50626011  0.76855129  0.70401275     0.11900
S255        S  0.50182677  0.86000292  0.72733919    -0.06300
C256        C  0.50325508  0.84192613  0.66708920    -0.09800
C257        C  0.50581134  0.79219052  0.66008619    -0.26400
S258        S  0.50854168  0.64141583  0.77469819    -0.03600
C259        C  0.50542468  0.65929783  0.83491407    -0.17100
C260        C  0.50367114  0.70908925  0.84203165    -0.15100
H261        H  0.50129242  0.80804499  0.82192584     0.20300
H262        H  0.50979714  0.69342407  0.68027539     0.16400
H263        H  0.50703978  0.77432592  0.62489004     0.18900
H264        H  0.50150534  0.72686049  0.87723112     0.12200
C265        C  0.50334089  0.29959398  0.75785990     0.16100
C266        C  0.50001216  0.28231942  0.70985360    -0.32900
C267        C  0.50476883  0.23217147  0.70241550     0.20500
C268        C  0.51278860  0.20072744  0.74112939     0.02700
C269        C  0.51620710  0.21800802  0.78915636    -0.22700
C270        C  0.51107412  0.26814209  0.79662464     0.11900
S271        S  0.49798144  0.35902144  0.77424956    -0.06300
C272        C  0.50581572  0.34153333  0.83416331    -0.09800
C273        C  0.51242248  0.29197824  0.84065777    -0.26400
S274        S  0.51683425  0.14118672  0.72475475    -0.03600
C275        C  0.50722831  0.15859870  0.66502099    -0.17100
C276        C  0.50168429  0.20824636  0.65852727    -0.15100
H277        H  0.49363800  0.30688414  0.67966749     0.20300
H278        H  0.52218312  0.19339835  0.81938959     0.16400
H279        H  0.51793177  0.27439347  0.87556475     0.18900
H280        H  0.49505298  0.22578869  0.62379626     0.12200
C281        C  0.80060669  0.25526047  0.49584536     0.16100
C282        C  0.78352711  0.20715009  0.49642015    -0.32900
C283        C  0.73283749  0.19978633  0.49399888     0.20500
C284        C  0.70075520  0.23869109  0.49086654     0.02700
C285        C  0.71784502  0.28672777  0.49000010    -0.22700
C286        C  0.76846306  0.29411166  0.49271800     0.11900
S287        S  0.86054128  0.27180628  0.49930779    -0.06300
C288        C  0.84230532  0.33187955  0.49653780    -0.09800
C289        C  0.79211645  0.33819043  0.49308873    -0.26400
S290        S  0.64070222  0.22252058  0.48935027    -0.03600
C291        C  0.65863703  0.16250197  0.49327312    -0.17100
C292        C  0.70890484  0.15584145  0.49519860    -0.15100
H293        H  0.80863104  0.17683155  0.49908367     0.20300
H294        H  0.69271187  0.31705541  0.48777024     0.16400
H295        H  0.77390267  0.37306970  0.49101524     0.18900
H296        H  0.72691061  0.12090426  0.49801779     0.12200
C297        C  0.79806885  0.73900702  0.49391349     0.16100
C298        C  0.78127887  0.78715481  0.49445923    -0.32900
C299        C  0.73064516  0.79477418  0.49397248     0.20500
C300        C  0.69825577  0.75604848  0.49284995     0.02700
C301        C  0.71505996  0.70785139  0.49221614    -0.22700
C302        C  0.76573477  0.70022991  0.49285482     0.11900
S303        S  0.85798982  0.72252018  0.49489210    -0.06300
C304        C  0.83964607  0.66251892  0.49396085    -0.09800
C305        C  0.78936555  0.65609203  0.49286986    -0.26400
S306        S  0.63831506  0.77276788  0.49293961    -0.03600
C307        C  0.65685886  0.83273148  0.49472288    -0.17100
C308        C  0.70715597  0.83893830  0.49495373    -0.15100
H309        H  0.80661320  0.81735180  0.49546515     0.20300
H310        H  0.68972876  0.67764507  0.49150849     0.16400
H311        H  0.77113294  0.62118510  0.49235303     0.18900
H312        H  0.72552920  0.87375486  0.49618074     0.12200
C313        C  0.25794281  0.19982277  0.51062643     0.16100
C314        C  0.21008962  0.21747439  0.51404825    -0.32900
C315        C  0.20335587  0.26776695  0.51074507     0.20500
C316        C  0.24256882  0.29908975  0.50454897     0.02700
C317        C  0.29045496  0.28144477  0.50120898    -0.22700
C318        C  0.29716895  0.23111408  0.50435313     0.11900
S319        S  0.27349340  0.14004247  0.51320411    -0.06300
C320        C  0.33360344  0.15725896  0.50575725    -0.09800
C321        C  0.34082860  0.20688990  0.50161057    -0.26400
S322        S  0.22680997  0.35877993  0.50100318    -0.03600
C323        C  0.16662622  0.34137952  0.50757120    -0.17100
C324        C  0.15957223  0.29182524  0.51250786    -0.15100
H325        H  0.17944251  0.19305516  0.51880403     0.20300
H326        H  0.32107423  0.30584390  0.49617117     0.16400
H327        H  0.37597977  0.22424910  0.49660129     0.18900
H328        H  0.12439309  0.27435311  0.51687633     0.12200
C329        C  0.24153479  0.69882363  0.51022725     0.16100
C330        C  0.28962557  0.71614625  0.51227222    -0.32900
C331        C  0.29656757  0.76641412  0.50835942     0.20500
C332        C  0.25732975  0.79789968  0.50291526     0.02700
C333        C  0.20931633  0.78057562  0.50090313    -0.22700
C334        C  0.20237643  0.73037939  0.50460358     0.11900
S335        S  0.22549523  0.63922140  0.51355364    -0.06300
C336        C  0.16533677  0.65698943  0.50703185    -0.09800
C337        C  0.15846647  0.70660907  0.50282961    -0.26400
S338        S  0.27306467  0.85750321  0.49884823    -0.03600
C339        C  0.33333134  0.84005716  0.50434367    -0.17100
C340        C  0.34045357  0.79041004  0.50911974    -0.15100
H341        H  0.32023776  0.69153596  0.51648525     0.20300
H342        H  0.17871845  0.80515553  0.49644942     0.16400
H343        H  0.12338990  0.72427942  0.49824991     0.18900
H344        H  0.37568935  0.77288184  0.51300140     0.12200
C345        C  0.70103262  0.50106758  0.24217168     0.16100
C346        C  0.71942922  0.50065243  0.28978305    -0.32900
C347        C  0.77021822  0.49866194  0.29555029     0.20500
C348        C  0.80143806  0.49709052  0.25573160     0.02700
C349        C  0.78303531  0.49759444  0.20801464    -0.22700
C350        C  0.73214483  0.49964989  0.20226017     0.11900
S351        S  0.64050123  0.50292851  0.22773791    -0.06300
C352        C  0.65706871  0.50170730  0.16714764    -0.09800
C353        C  0.70710937  0.50015254  0.15899096    -0.26400
S354        S  0.86192871  0.49494186  0.27066237    -0.03600
C355        C  0.84489473  0.49651100  0.33122590    -0.17100
C356        C  0.79489464  0.49827495  0.33894059    -0.15100
H357        H  0.69519435  0.50180624  0.32098995     0.20300
H358        H  0.80727015  0.49642571  0.17680568     0.16400
H359        H  0.72423240  0.49904498  0.12338420     0.18900
H360        H  0.77748841  0.49956327  0.37440094     0.12200
C361        C  0.24340641  0.49613847  0.30042920     0.16100
C362        C  0.29105691  0.49549961  0.28172235    -0.32900
C363        C  0.29658619  0.49731910  0.23088901     0.20500
C364        C  0.25650932  0.49957760  0.20000355     0.02700
C365        C  0.20885505  0.50031579  0.21871886    -0.22700
C366        C  0.20332765  0.49856062  0.26955409     0.11900
S367        S  0.22896185  0.49426598  0.36097186    -0.06300
C368        C  0.16818360  0.49690631  0.34460505    -0.09800
C369        C  0.16004980  0.49900259  0.29467048    -0.26400
S370        S  0.27098748  0.50135188  0.13944506    -0.03600
C371        C  0.33179163  0.49925372  0.15582481    -0.17100
C372        C  0.33987692  0.49716779  0.20578493    -0.15100
H373        H  0.32244209  0.49369514  0.30573246     0.20300
H374        H  0.17746813  0.50218355  0.19471682     0.16400
H375        H  0.12438584  0.50091597  0.27762134     0.18900
H376        H  0.37553691  0.49562279  0.22287917     0.12200
C377        C  0.20003987  0.50696521  0.74359397     0.16100
C378        C  0.21906003  0.50769148  0.79100786    -0.32900
C379        C  0.26999645  0.50643242  0.79616694     0.20500
C380        C  0.30072791  0.50480333  0.75597742     0.02700
C381        C  0.28171587  0.50434508  0.70853125    -0.22700
C382        C  0.23075265  0.50532986  0.70339059     0.11900
S383        S  0.13927364  0.50711110  0.72963382    -0.06300
C384        C  0.15538169  0.50466567  0.66889743    -0.09800
C385        C  0.20534605  0.50415661  0.66040962    -0.26400
S386        S  0.36144009  0.50291649  0.77009396    -0.03600
C387        C  0.34523146  0.50426428  0.83087917    -0.17100
C388        C  0.29529912  0.50616686  0.83922700    -0.15100
H389        H  0.19520492  0.50877573  0.82250690     0.20300
H390        H  0.30555874  0.50287798  0.67703503     0.16400
H391        H  0.22221612  0.50253617  0.62470401     0.18900
H392        H  0.27835768  0.50712400  0.87491922     0.12200
C393        C  0.75680857  0.49423306  0.70051726     0.16100
C394        C  0.70934778  0.49364414  0.71944417    -0.32900
C395        C  0.70421583  0.49517601  0.77024310     0.20500
C396        C  0.74445903  0.49681492  0.80097008     0.02700
C397        C  0.79197782  0.49723420  0.78204033    -0.22700
C398        C  0.79709233  0.49609475  0.73118151     0.11900
S399        S  0.77068175  0.49355022  0.63990159    -0.06300
C400        C  0.83149118  0.49617611  0.65598103    -0.09800
C401        C  0.84010313  0.49715899  0.70582463    -0.26400
S402        S  0.73029746  0.49883214  0.86154365    -0.03600
C403        C  0.66945271  0.49776784  0.84519769    -0.17100
C404        C  0.66110171  0.49571499  0.79538382    -0.15100
H405        H  0.67779080  0.49245178  0.69561884     0.20300
H406        H  0.82353040  0.49877784  0.80585250     0.16400
H407        H  0.87589460  0.49885056  0.72262881     0.18900
H408        H  0.62536431  0.49482333  0.77840650     0.12200
C409        C  0.75928053  0.80024080  0.01862467     0.16100
C410        C  0.71093934  0.78329397  0.02077824    -0.32900
C411        C  0.70316237  0.73327463  0.01455551     0.20500
C412        C  0.74194103  0.70165578  0.00709131     0.02700
C413        C  0.79021368  0.71856174  0.00521556    -0.22700
C414        C  0.79795393  0.76854620  0.01094419     0.11900
S415        S  0.77615619  0.85966613  0.02319441    -0.06300
C416        C  0.83598932  0.84178806  0.01404789    -0.09800
C417        C  0.84213149  0.79209440  0.00857212    -0.26400
S418        S  0.72527360  0.64246988  0.00015398    -0.03600
C419        C  0.66517704  0.66014195  0.00718002    -0.17100
C420        C  0.65885213  0.70968116  0.01450048    -0.15100
H421        H  0.68070872  0.80808351  0.02641780     0.20300
H422        H  0.82039357  0.69385423  0.99898624     0.16400
H423        H  0.87681153  0.77428010  0.00199584     0.18900
H424        H  0.62388558  0.72739780  0.01969084     0.12200
C425        C  0.75702866  0.20006234  0.99701794     0.16100
C426        C  0.70869555  0.21699877  0.99806279    -0.32900
C427        C  0.70139259  0.26741064  0.99792069     0.20500
C428        C  0.74054020  0.29937980  0.99657305     0.02700
C429        C  0.78880030  0.28244909  0.99530122    -0.22700
C430        C  0.79611485  0.23210281  0.99568889     0.11900
S431        S  0.77352123  0.14041522  0.99805467    -0.06300
C432        C  0.83382695  0.15872222  0.99701065    -0.09800
C433        C  0.84035528  0.20862641  0.99554633    -0.26400
S434        S  0.72440495  0.35906253  0.99709620    -0.03600
C435        C  0.66409694  0.34106102  0.99920897    -0.17100
C436        C  0.65725140  0.29112508  0.99936052    -0.15100
H437        H  0.67818165  0.19199093  0.99929715     0.20300
H438        H  0.81932137  0.30746267  0.99442587     0.16400
H439        H  0.87546881  0.22675139  0.99492450     0.18900
H440        H  0.62205172  0.27319745  0.00062123     0.12200
C441        C  0.25904876  0.70252498  0.99030405     0.16100
C442        C  0.21094672  0.71999885  0.98983435    -0.32900
C443        C  0.20417830  0.77040531  0.99207918     0.20500
C444        C  0.24358454  0.80200545  0.99425415     0.02700
C445        C  0.29171683  0.78453027  0.99446886    -0.22700
C446        C  0.29848484  0.73408378  0.99263316     0.11900
S447        S  0.27473769  0.64267021  0.98916053    -0.06300
C448        C  0.33523209  0.66015915  0.99210031    -0.09800
C449        C  0.34239639  0.70999032  0.99359061    -0.26400
S450        S  0.22771838  0.86180353  0.99729841    -0.03600
C451        C  0.16721851  0.84412570  0.99596341    -0.17100
C452        C  0.16021649  0.79434061  0.99302053    -0.15100
H453        H  0.18014384  0.69535581  0.98830228     0.20300
H454        H  0.32250818  0.80915100  0.99646471     0.16400
H455        H  0.37770665  0.72760578  0.99576713     0.18900
H456        H  0.12492108  0.77660135  0.99181310     0.12200
C457        C  0.24028299  0.20336999  0.99598188     0.16100
C458        C  0.28852157  0.22028571  0.99516314    -0.32900
C459        C  0.29578118  0.27060306  0.99557094     0.20500
C460        C  0.25667042  0.30267667  0.99675646     0.02700
C461        C  0.20833121  0.28575849  0.99757266    -0.22700
C462        C  0.20107620  0.23532765  0.99712415     0.11900
S463        S  0.22425027  0.14368316  0.99567654    -0.06300
C464        C  0.16385349  0.16159885  0.99697659    -0.09800
C465        C  0.15694515  0.21155782  0.99768649    -0.26400
S466        S  0.27317288  0.36230503  0.99715717    -0.03600
C467        C  0.33349125  0.34386151  0.99573365    -0.17100
C468        C  0.34001465  0.29398173  0.99499063    -0.15100
H469        H  0.31907757  0.19527366  0.99425708     0.20300
H470        H  0.17778224  0.31078167  0.99850535     0.16400
H471        H  0.12170020  0.22946215  0.99859206     0.18900
H472        H  0.37512333  0.27581321  0.99413015     0.12200
C473        C  0.75563477  0.00088996  0.80199874     0.16100
C474        C  0.70771056  0.00135548  0.78373728    -0.32900
C475        C  0.70163680  0.00006491  0.73289439     0.20500
C476        C  0.74149718  0.99841534  0.70170936     0.02700
C477        C  0.78933282  0.99783801  0.71996645    -0.22700
C478        C  0.79541435  0.99911001  0.77071924     0.11900
S479        S  0.77090773  0.00230461  0.86238101    -0.06300
C480        C  0.83161727  0.00027257  0.84530711    -0.09800
C481        C  0.83906510  0.99877547  0.79530067    -0.26400
S482        S  0.72663805  0.99736335  0.64128808    -0.03600
C483        C  0.66588246  0.99911968  0.65794582    -0.17100
C484        C  0.65808226  0.00039654  0.70799973    -0.15100
H485        H  0.67656094  0.00271169  0.80806303     0.20300
H486        H  0.82048418  0.99651140  0.69564409     0.16400
H487        H  0.87452491  0.99736736  0.77781739     0.18900
H488        H  0.62250220  0.00162181  0.72525414     0.12200
C489        C  0.23940537  0.99320034  0.79960069     0.16100
C490        C  0.28796845  0.99185173  0.78359864    -0.32900
C491        C  0.29625890  0.99451204  0.73334051     0.20500
C492        C  0.25774113  0.99817341  0.70060319     0.02700
C493        C  0.20914041  0.99942332  0.71659612    -0.22700
C494        C  0.20086600  0.99688755  0.76689208     0.11900
S495        S  0.22221949  0.99119204  0.85901813    -0.06300
C496        C  0.16229226  0.99546494  0.83988814    -0.09800
C497        C  0.15627952  0.99808087  0.78979695    -0.26400
S498        S  0.27511788  0.00103688  0.64126175    -0.03600
C499        C  0.33509036  0.99735907  0.66055341    -0.17100
C500        C  0.34092897  0.99407067  0.71058811    -0.15100
H501        H  0.31795706  0.98907507  0.80924102     0.20300
H502        H  0.17915796  0.00241234  0.69096721     0.16400
H503        H  0.12145448  0.00122263  0.77127565     0.18900
H504        H  0.37573547  0.99140684  0.72921230     0.12200
C505        C  0.24215474  0.00321190  0.20090401     0.16100
C506        C  0.28987027  0.00125685  0.21895458    -0.32900
C507        C  0.29595466  0.00416813  0.26950928     0.20500
C508        C  0.25638211  0.00908549  0.30076468     0.02700
C509        C  0.20862069  0.01109474  0.28270840    -0.22700
C510        C  0.20252153  0.00788913  0.23211939     0.11900
S511        S  0.22722944  0.99995465  0.14076053    -0.06300
C512        C  0.16685703  0.00482082  0.15780277    -0.09800
C513        C  0.15907260  0.00872352  0.20757058    -0.26400
S514        S  0.27146658  0.01137818  0.36094496    -0.03600
C515        C  0.33170229  0.00506790  0.34374264    -0.17100
C516        C  0.33936336  0.00199158  0.29395817    -0.15100
H517        H  0.32085742  0.99735438  0.19469017     0.20300
H518        H  0.17761466  0.01469127  0.30699794     0.16400
H519        H  0.12362141  0.01205343  0.22483029     0.18900
H520        H  0.37467890  0.99776083  0.27661968     0.12200
C521        C  0.79937662  0.99535366  0.24307372     0.16100
C522        C  0.78101459  0.99297121  0.29069181    -0.32900
C523        C  0.73017893  0.99418071  0.29659687     0.20500
C524        C  0.69897267  0.99742078  0.25684985     0.02700
C525        C  0.71732725  0.99950917  0.20917137    -0.22700
C526        C  0.76820671  0.99846923  0.20328720     0.11900
S527        S  0.85989396  0.99520687  0.22843828    -0.06300
C528        C  0.84318635  0.99935805  0.16794664    -0.09800
C529        C  0.79313262  0.00064434  0.15998373    -0.26400
S530        S  0.63852303  0.99917451  0.27177640    -0.03600
C531        C  0.65542052  0.99560873  0.33231265    -0.17100
C532        C  0.70542357  0.99303746  0.34001850    -0.15100
H533        H  0.80530818  0.99062903  0.32179858     0.20300
H534        H  0.69304429  0.00215986  0.17807889     0.16400
H535        H  0.77591319  0.00321945  0.12449416     0.18900
H536        H  0.72276798  0.99079061  0.37546631     0.12200
C537        C  0.99182885  0.19946158  0.75703964     0.16100
C538        C  0.98878218  0.21698721  0.70919182    -0.32900
C539        C  0.98947869  0.26743735  0.70263281     0.20500
C540        C  0.99273840  0.29898032  0.74199787     0.02700
C541        C  0.99571703  0.28146600  0.78982310    -0.22700
C542        C  0.99527257  0.23103809  0.79635556     0.11900
S543        S  0.99169520  0.13958676  0.77258223    -0.06300
C544        C  0.99607743  0.15722578  0.83278591    -0.09800
C545        C  0.99783168  0.20702364  0.83999465    -0.26400
S546        S  0.99393270  0.35881165  0.72653478    -0.03600
C547        C  0.99082410  0.34126820  0.66623451    -0.17100
C548        C  0.98821640  0.29151143  0.65892774    -0.15100
H549        H  0.98629571  0.19238485  0.67844131     0.20300
H550        H  0.99852980  0.30606139  0.82055432     0.16400
H551        H  0.00056879  0.22470287  0.87520409     0.18900
H552        H  0.98633839  0.27390415  0.62362768     0.12200
C553        C  0.00730225  0.70062955  0.74142675     0.16100
C554        C  0.01403324  0.71797658  0.78913404    -0.32900
C555        C  0.00293312  0.76688886  0.79835494     0.20500
C556        C  0.98586061  0.79704829  0.76157421     0.02700
C557        C  0.97917309  0.77971757  0.71387380    -0.22700
C558        C  0.99047328  0.73087557  0.70460460     0.11900
S559        S  0.01809457  0.64241594  0.72317829    -0.06300
C560        C  0.00003120  0.65883846  0.66510846    -0.09800
C561        C  0.98655158  0.70720639  0.66054205    -0.26400
S562        S  0.97520044  0.85529542  0.77969834    -0.03600
C563        C  0.99409559  0.83918183  0.83758285    -0.17100
C564        C  0.00751617  0.79078976  0.84224075    -0.15100
H565        H  0.02738157  0.69436697  0.81778623     0.20300
H566        H  0.96592867  0.80335721  0.68519817     0.16400
H567        H  0.97379673  0.72389028  0.62710969     0.18900
H568        H  0.02076915  0.77427094  0.87556286     0.12200
C569        C  0.00576583  0.80051932  0.24412106     0.16100
C570        C  0.00521797  0.78253472  0.29206507    -0.32900
C571        C  0.00305595  0.73194664  0.29842680     0.20500
C572        C  0.00163200  0.70070384  0.25875457     0.02700
C573        C  0.00225700  0.71867638  0.21083045    -0.22700
C574        C  0.00429221  0.76925134  0.20447531     0.11900
S575        S  0.00752823  0.86063667  0.22873280    -0.06300
C576        C  0.00590896  0.84370004  0.16808163    -0.09800
C577        C  0.00450653  0.79375027  0.16076659    -0.26400
S578        S  0.99938654  0.64061746  0.27404321    -0.03600
C579        C  0.00063680  0.65747872  0.33472565    -0.17100
C580        C  0.00234378  0.70740242  0.34213378    -0.15100
H581        H  0.00629163  0.80692995  0.32305711     0.20300
H582        H  0.00107991  0.69428347  0.17983826     0.16400
H583        H  0.00314327  0.77626674  0.12538701     0.18900
H584        H  0.00347308  0.72481444  0.37755490     0.12200
C585        C  0.99450012  0.24343579  0.20035177     0.16100
C586        C  0.98800112  0.29035814  0.21915344    -0.32900
C587        C  0.99977020  0.29797814  0.26833769     0.20500
C588        C  0.01708345  0.26053124  0.29747105     0.02700
C589        C  0.02370379  0.21371088  0.27863040    -0.22700
C590        C  0.01190841  0.20606541  0.22952730     0.11900
S591        S  0.98258475  0.22674986  0.14166684    -0.06300
C592        C  0.00116521  0.16874903  0.15665974    -0.09800
C593        C  0.01562202  0.16302063  0.20471746    -0.26400
S594        S  0.02815934  0.27668010  0.35643742    -0.03600
C595        C  0.00944318  0.33463056  0.34179602    -0.17100
C596        C  0.99560706  0.34080501  0.29352856    -0.15100
H597        H  0.97429795  0.31957250  0.19649546     0.20300
H598        H  0.03721314  0.18445083  0.30133779     0.16400
H599        H  0.02861383  0.12933797  0.22050558     0.18900
H600        H  0.98234843  0.37450653  0.27799203     0.12200
loop_ 
_geom_bond_atom_site_label_1 
_geom_bond_atom_site_label_2 
_geom_bond_distance 
_geom_bond_site_symmetry_2 
_ccdc_geom_bond_type 
O1          Zr37   2.454       .  S
O1           C12   1.296       .  A
O2          Zr36   2.426   1_545  S
O2           C13   1.290       .  A
O3           Zr9   2.454   1_455  S
O3           C14   1.295       .  A
O4           Zr9   2.452       .  S
O4           C15   1.295       .  A
O5          Zr39   2.422       .  S
O5           C15   1.289   1_554  A
O6          Zr38   2.426       .  S
O6           C14   1.290       .  A
O7           Zr9   2.443       .  S
O7           C13   1.293       .  A
O8           Zr9   2.422   1_554  S
O8           C12   1.289   1_655  A
Zr9          O10   2.337       .  S
Zr9          O11   2.346   1_656  S
Zr9          O19   2.350   1_556  S
Zr9          O17   2.340   1_655  S
O10         Zr36   2.337   1_545  S
O10         Zr39   2.338   1_556  S
O11         Zr37   2.338       .  S
O11         Zr38   2.328   1_554  S
C12         C592   1.469       .  S
C13         C544   1.469       .  S
C14         C464   1.474       .  S
C15         C432   1.473       .  S
H16          O17   0.965       .  S
O17         Zr36   2.341   1_445  S
O17         Zr38   2.336       .  S
H18          O19   0.965       .  S
O19         Zr37   2.343   1_655  S
O19         Zr39   2.333       .  S
O20         Zr36   2.420       .  S
O20          C43   1.289       .  A
O21         Zr37   2.446   1_565  S
O21          C44   1.294       .  A
O22         Zr38   2.406   1_565  S
O22          C45   1.286       .  A
O23         Zr39   2.428   1_566  S
O23          C46   1.290       .  A
O24         Zr39   2.441       .  S
O24          C47   1.292       .  A
O25         Zr38   2.424   1_554  S
O25          C48   1.289       .  A
O26         Zr40   2.457   1_556  S
O26          C49   1.296       .  A
O27         Zr40   2.460   1_655  S
O27          C50   1.297       .  A
O28         Zr38   2.421   1_565  S
O28          C49   1.289       .  A
O29         Zr39   2.420   1_565  S
O29          C50   1.288       .  A
O30         Zr36   2.459   1_455  S
O30          C45   1.296       .  A
O31         Zr37   2.430       .  S
O31          C48   1.290       .  A
O32         Zr37   2.429   1_655  S
O32          C47   1.290       .  A
O33         Zr36   2.453   1_545  S
O33          C46   1.295   1_545  A
O34         Zr40   2.469   1_656  S
O34          C43   1.298       .  A
O35         Zr40   2.456       .  S
O35          C44   1.296       .  A
Zr36         O42   2.339   1_655  S
Zr36         O54   2.346       .  S
Zr37         O41   2.340   1_445  S
Zr37         O52   2.342   1_545  S
Zr38         O42   2.336   1_545  S
Zr38         O52   2.329   1_546  S
Zr39         O41   2.331   1_545  S
Zr39         O54   2.342   1_544  S
Zr40         O41   2.348   1_455  S
Zr40         O42   2.342   1_554  S
Zr40         O54   2.347   1_454  S
Zr40         O52   2.351       .  S
C43         C563   1.477       .  S
C44         C576   1.482       .  S
C45         C496   1.469       .  S
C46         C480   1.476   1_565  S
C47         C528   1.472   1_545  S
C48         C512   1.465       .  S
C49         C451   1.474       .  S
C50         C416   1.476       .  S
H51          O52   0.965       .  S
H53          O54   0.966       .  S
O55         Zr91   2.441       .  S
O55          C66   1.293       .  A
O56         Zr90   2.423       .  S
O56          C67   1.289       .  A
O57         Zr63   2.450       .  S
O57          C68   1.294       .  A
O58         Zr63   2.423   1_655  S
O58          C69   1.290       .  A
O59         Zr93   2.472       .  S
O59          C69   1.299       .  A
O60         Zr92   2.413       .  S
O60          C68   1.287       .  A
O61         Zr63   2.443   1_655  S
O61          C67   1.293       .  A
O62         Zr63   2.432       .  S
O62          C66   1.291       .  A
Zr63         O64   2.340   1_455  S
Zr63         O65   2.336       .  S
Zr63         O73   2.349   1_455  S
Zr63         O71   2.333       .  S
O64         Zr90   2.332       .  S
O64         Zr93   2.342       .  S
O65         Zr91   2.339       .  S
O65         Zr92   2.331       .  S
C66         C595   1.469       .  S
C67         C547   1.469       .  S
C68         C323   1.468       .  S
C69         C288   1.480       .  S
H70          O71   0.966       .  S
O71         Zr90   2.338   1_455  S
O71         Zr92   2.338       .  S
H72          O73   0.966       .  S
O73         Zr91   2.340   1_655  S
O73         Zr93   2.344       .  S
O74         Zr90   2.419       .  S
O74          C97   1.288       .  A
O75         Zr91   2.439       .  S
O75          C98   1.292       .  A
O76         Zr92   2.437       .  S
O76          C99   1.292       .  A
O77         Zr93   2.433       .  S
O77         C100   1.291       .  A
O78         Zr93   2.440       .  S
O78         C101   1.293       .  A
O79         Zr92   2.441       .  S
O79         C102   1.292       .  A
O80         Zr94   2.456       .  S
O80         C103   1.296       .  A
O81         Zr94   2.420   1_655  S
O81         C104   1.290       .  A
O82         Zr92   2.407       .  S
O82         C103   1.286       .  A
O83         Zr93   2.466       .  S
O83         C104   1.298       .  A
O84         Zr90   2.435   1_455  S
O84          C99   1.291       .  A
O85         Zr91   2.435       .  S
O85         C102   1.292       .  A
O86         Zr91   2.430   1_655  S
O86         C101   1.290       .  A
O87         Zr90   2.434       .  S
O87         C100   1.291       .  A
O88         Zr94   2.468   1_655  S
O88          C97   1.297       .  A
O89         Zr94   2.458       .  S
O89          C98   1.296       .  A
Zr90         O96   2.334   1_655  S
Zr90        O108   2.338       .  S
Zr91         O95   2.338   1_455  S
Zr91        O106   2.343       .  S
Zr92         O96   2.333       .  S
Zr92        O106   2.339       .  S
Zr93         O95   2.343       .  S
Zr93        O108   2.352       .  S
Zr94         O95   2.350   1_455  S
Zr94         O96   2.332       .  S
Zr94        O108   2.350   1_455  S
Zr94        O106   2.342       .  S
C97         C560   1.477   1_655  S
C98         C579   1.482       .  S
C99         C384   1.472       .  S
C100        C400   1.469       .  S
C101        C355   1.471       .  S
C102        C368   1.474       .  S
C103        C336   1.468       .  S
C104        C304   1.476       .  S
H105        O106   0.966       .  S
H107        O108   0.966       .  S
O109       Zr145   2.448       .  S
O109        C120   1.294       .  A
O110       Zr144   2.418   1_545  S
O110        C121   1.288       .  A
O111       Zr117   2.460       .  S
O111        C122   1.297       .  A
O112       Zr117   2.468   1_545  S
O112        C123   1.298       .  A
O113       Zr147   2.433       .  S
O113        C123   1.291       .  A
O114       Zr146   2.422       .  S
O114        C122   1.289       .  A
O115       Zr117   2.433   1_545  S
O115        C121   1.291       .  A
O116       Zr117   2.426       .  S
O116        C120   1.290       .  A
Zr117       O118   2.337   1_565  S
Zr117       O119   2.344       .  S
Zr117       O127   2.344   1_565  S
Zr117       O125   2.345       .  S
O118       Zr144   2.326   1_545  S
O118       Zr147   2.338       .  S
O119       Zr145   2.338       .  S
O119       Zr146   2.347       .  S
C120        C531   1.473       .  S
C121        C515   1.464       .  S
C122        C243   1.473       .  S
C123        C224   1.482       .  S
H124        O125   0.966       .  S
O125       Zr144   2.328       .  S
O125       Zr146   2.344       .  S
H126        O127   0.967       .  S
O127       Zr145   2.347   1_545  S
O127       Zr147   2.354       .  S
O128       Zr144   2.399       .  S
O128        C151   1.285       .  A
O129       Zr145   2.438       .  S
O129        C152   1.293       .  A
O130       Zr146   2.447       .  S
O130        C153   1.293       .  A
O131       Zr147   2.448       .  S
O131        C154   1.294       .  A
O132       Zr147   2.426       .  S
O132        C155   1.290       .  A
O133       Zr146   2.420       .  S
O133        C156   1.289       .  A
O134       Zr148   2.409       .  S
O134        C157   1.286       .  A
O135       Zr148   2.417   1_545  S
O135        C158   1.288       .  A
O136       Zr146   2.453       .  S
O136        C157   1.295       .  A
O137       Zr147   2.459       .  S
O137        C158   1.296       .  A
O138       Zr144   2.422       .  S
O138        C153   1.289       .  A
O139       Zr145   2.467       .  S
O139        C156   1.297       .  A
O140       Zr145   2.462   1_545  S
O140        C155   1.297       .  A
O141       Zr144   2.416   1_545  S
O141        C154   1.288       .  A
O142       Zr148   2.468       .  S
O142        C151   1.297       .  A
O143       Zr148   2.450       .  S
O143        C152   1.295       .  A
Zr144       O150   2.333       .  S
Zr144       O162   2.338   1_565  S
Zr145       O149   2.349   1_565  S
Zr145       O160   2.349       .  S
Zr146       O150   2.328       .  S
Zr146       O160   2.338       .  S
Zr147       O149   2.340       .  S
Zr147       O162   2.333       .  S
Zr148       O149   2.340   1_565  S
Zr148       O150   2.338       .  S
Zr148       O162   2.335   1_565  S
Zr148       O160   2.344       .  S
C151        C499   1.470       .  S
C152        C483   1.477       .  S
C153        C339   1.470       .  S
C154        C320   1.469       .  S
C155        C291   1.478       .  S
C156        C307   1.478       .  S
C157        C256   1.467       .  S
C158        C275   1.474       .  S
H159        O160   0.966       .  S
H161        O162   0.966       .  S
O163       Zr199   2.460       .  S
O163        C174   1.296       .  A
O164       Zr198   2.458       .  S
O164        C175   1.296       .  A
O165       Zr171   2.446   1_554  S
O165        C176   1.293       .  A
O166       Zr171   2.442       .  S
O166        C177   1.293       .  A
O167       Zr201   2.431       .  S
O167        C177   1.290       .  A
O168       Zr200   2.434       .  S
O168        C176   1.292       .  A
O169       Zr171   2.418       .  S
O169        C175   1.288       .  A
O170       Zr171   2.411       .  S
O170        C174   1.287       .  A
Zr171       O172   2.334       .  S
Zr171       O173   2.337   1_556  S
Zr171       O181   2.340       .  S
Zr171       O179   2.334   1_556  S
O172       Zr198   2.336       .  S
O172       Zr201   2.337       .  S
O173       Zr199   2.345   1_554  S
O173       Zr200   2.343       .  S
C174        C467   1.472       .  S
C175        C448   1.473       .  S
C176        C371   1.475       .  S
C177        C387   1.472       .  S
H178        O179   0.965       .  S
O179       Zr198   2.348   1_554  S
O179       Zr200   2.350       .  S
H180        O181   0.965       .  S
O181       Zr199   2.339       .  S
O181       Zr201   2.337       .  S
O182       Zr198   2.457   1_554  S
O182        C205   1.295       .  A
O183       Zr199   2.448       .  S
O183        C206   1.294   1_556  A
O184       Zr200   2.459       .  S
O184        C207   1.296       .  A
O185       Zr201   2.416       .  S
O185        C208   1.288       .  A
O186       Zr201   2.425       .  S
O186        C209   1.289       .  A
O187       Zr200   2.471       .  S
O187        C210   1.298       .  A
O188       Zr202   2.430       .  S
O188        C211   1.291       .  A
O189       Zr202   2.431   1_556  S
O189        C212   1.290       .  A
O190       Zr200   2.438       .  S
O190        C211   1.292       .  A
O191       Zr201   2.437       .  S
O191        C212   1.292       .  A
O192       Zr198   2.425   1_554  S
O192        C207   1.290       .  A
O193       Zr199   2.431   1_554  S
O193        C210   1.291       .  A
O194       Zr199   2.453       .  S
O194        C209   1.295       .  A
O195       Zr198   2.449       .  S
O195        C208   1.294       .  A
O196       Zr202   2.430       .  S
O196        C205   1.290       .  A
O197       Zr202   2.425       .  S
O197        C206   1.290       .  A
Zr198       O204   2.348   1_556  S
Zr198       O216   2.342       .  S
Zr199       O203   2.340       .  S
Zr199       O214   2.352   1_556  S
Zr200       O204   2.345       .  S
Zr200       O214   2.344       .  S
Zr201       O203   2.330       .  S
Zr201       O216   2.338       .  S
Zr202       O203   2.336   1_554  S
Zr202       O204   2.334       .  S
Zr202       O216   2.336   1_554  S
Zr202       O214   2.340       .  S
C205        C419   1.477       .  S
C206        C435   1.472   1_554  S
C207        C240   1.473       .  S
C208        C259   1.468       .  S
C209        C272   1.474       .  S
C210        C227   1.481       .  S
C211        C352   1.471       .  S
C212        C403   1.470       .  S
H213        O214   0.965       .  S
H215        O216   0.965       .  S
C217        S223   1.708       .  A
C217        C222   1.387       .  A
C217        C218   1.406       .  A
C218        C219   1.405       .  A
C218        H229   1.083       .  S
C219        C228   1.379       .  A
C219        C220   1.387       .  A
C220        S226   1.705       .  A
C220        C221   1.405       .  A
C221        C222   1.404       .  A
C221        H230   1.083       .  S
C222        C225   1.378       .  A
S223        C224   1.728       .  A
C224        C225   1.389       .  A
C225        H231   1.083       .  S
S226        C227   1.727       .  A
C227        C228   1.390       .  A
C228        H232   1.083       .  S
C233        S239   1.702       .  A
C233        C238   1.387       .  A
C233        C234   1.401       .  A
C234        C235   1.400       .  A
C234        H245   1.083       .  S
C235        C244   1.372       .  A
C235        C236   1.387       .  A
C236        S242   1.703       .  A
C236        C237   1.402       .  A
C237        C238   1.402       .  A
C237        H246   1.083       .  S
C238        C241   1.373       .  A
S239        C240   1.725       .  A
C240        C241   1.387       .  A
C241        H247   1.083       .  S
S242        C243   1.726       .  A
C243        C244   1.386       .  A
C244        H248   1.083       .  S
C249        S255   1.700       .  A
C249        C254   1.388       .  A
C249        C250   1.400       .  A
C250        C251   1.399       .  A
C250        H261   1.083       .  S
C251        C260   1.370       .  A
C251        C252   1.387       .  A
C252        S258   1.699       .  A
C252        C253   1.399       .  A
C253        C254   1.399       .  A
C253        H262   1.083       .  S
C254        C257   1.369       .  A
S255        C256   1.725       .  A
C256        C257   1.384       .  A
C257        H263   1.083       .  S
S258        C259   1.724       .  A
C259        C260   1.385       .  A
C260        H264   1.083       .  S
C265        S271   1.702       .  A
C265        C270   1.387       .  A
C265        C266   1.402       .  A
C266        C267   1.401       .  A
C266        H277   1.083       .  S
C267        C276   1.374       .  A
C267        C268   1.387       .  A
C268        S274   1.702       .  A
C268        C269   1.403       .  A
C269        C270   1.402       .  A
C269        H278   1.083       .  S
C270        C273   1.374       .  A
S271        C272   1.725       .  A
C272        C273   1.387       .  A
C273        H279   1.083       .  S
S274        C275   1.726       .  A
C275        C276   1.386       .  A
C276        H280   1.083       .  S
C281        S287   1.705       .  A
C281        C286   1.387       .  A
C281        C282   1.405       .  A
C282        C283   1.403       .  A
C282        H293   1.083       .  S
C283        C292   1.376       .  A
C283        C284   1.387       .  A
C284        S290   1.703       .  A
C284        C285   1.403       .  A
C285        C286   1.402       .  A
C285        H294   1.083       .  S
C286        C289   1.375       .  A
S287        C288   1.728       .  A
C288        C289   1.387       .  A
C289        H295   1.083       .  S
S290        C291   1.726       .  A
C291        C292   1.388       .  A
C292        H296   1.083       .  S
C297        S303   1.701       .  A
C297        C302   1.387       .  A
C297        C298   1.402       .  A
C298        C299   1.401       .  A
C298        H309   1.083       .  S
C299        C308   1.375       .  A
C299        C300   1.387       .  A
C300        S306   1.703       .  A
C300        C301   1.404       .  A
C301        C302   1.402       .  A
C301        H310   1.083       .  S
C302        C305   1.376       .  A
S303        C304   1.726       .  A
C304        C305   1.388       .  A
C305        H311   1.083       .  S
S306        C307   1.728       .  A
C307        C308   1.387       .  A
C308        H312   1.083       .  S
C313        S319   1.701       .  A
C313        C318   1.387       .  A
C313        C314   1.399       .  A
C314        C315   1.399       .  A
C314        H325   1.083       .  S
C315        C324   1.369       .  A
C315        C316   1.387       .  A
C316        S322   1.701       .  A
C316        C317   1.400       .  A
C317        C318   1.400       .  A
C317        H326   1.083       .  S
C318        C321   1.370       .  A
S319        C320   1.724       .  A
C320        C321   1.385       .  A
C321        H327   1.083       .  S
S322        C323   1.725       .  A
C323        C324   1.384       .  A
C324        H328   1.083       .  S
C329        S335   1.701       .  A
C329        C334   1.387       .  A
C329        C330   1.401       .  A
C330        C331   1.401       .  A
C330        H341   1.083       .  S
C331        C340   1.371       .  A
C331        C332   1.387       .  A
C332        S338   1.700       .  A
C332        C333   1.399       .  A
C333        C334   1.398       .  A
C333        H342   1.083       .  S
C334        C337   1.369       .  A
S335        C336   1.726       .  A
C336        C337   1.383       .  A
C337        H343   1.083       .  S
S338        C339   1.724       .  A
C339        C340   1.386       .  A
C340        H344   1.083       .  S
C345        S351   1.704       .  A
C345        C350   1.387       .  A
C345        C346   1.399       .  A
C346        C347   1.400       .  A
C346        H357   1.083       .  S
C347        C356   1.368       .  A
C347        C348   1.387       .  A
C348        S354   1.706       .  A
C348        C349   1.401       .  A
C349        C350   1.402       .  A
C349        H358   1.083       .  S
C350        C353   1.370       .  A
S351        C352   1.722       .  A
C352        C353   1.388       .  A
C353        H359   1.083       .  S
S354        C355   1.725       .  A
C355        C356   1.385       .  A
C356        H360   1.083       .  S
C361        S367   1.707       .  A
C361        C366   1.387       .  A
C361        C362   1.401       .  A
C362        C363   1.403       .  A
C362        H373   1.083       .  S
C363        C372   1.370       .  A
C363        C364   1.387       .  A
C364        S370   1.707       .  A
C364        C365   1.402       .  A
C365        C366   1.403       .  A
C365        H374   1.083       .  S
C366        C369   1.370       .  A
S367        C368   1.724       .  A
C368        C369   1.388       .  A
C369        H375   1.083       .  S
S370        C371   1.724       .  A
C371        C372   1.388       .  A
C372        H376   1.083       .  S
C377        S383   1.706       .  A
C377        C382   1.387       .  A
C377        C378   1.400       .  A
C378        C379   1.401       .  A
C378        H389   1.083       .  S
C379        C388   1.368       .  A
C379        C380   1.387       .  A
C380        S386   1.706       .  A
C380        C381   1.401       .  A
C381        C382   1.402       .  A
C381        H390   1.083       .  S
C382        C385   1.368       .  A
S383        C384   1.724       .  A
C384        C385   1.387       .  A
C385        H391   1.083       .  S
S386        C387   1.725       .  A
C387        C388   1.386       .  A
C388        H392   1.083       .  S
C393        S399   1.705       .  A
C393        C398   1.387       .  A
C393        C394   1.399       .  A
C394        C395   1.400       .  A
C394        H405   1.083       .  S
C395        C404   1.367       .  A
C395        C396   1.387       .  A
C396        S402   1.706       .  A
C396        C397   1.400       .  A
C397        C398   1.401       .  A
C397        H406   1.083       .  S
C398        C401   1.367       .  A
S399        C400   1.723       .  A
C400        C401   1.387       .  A
C401        H407   1.083       .  S
S402        C403   1.724       .  A
C403        C404   1.385       .  A
C404        H408   1.083       .  S
C409        S415   1.704       .  A
C409        C414   1.387       .  A
C409        C410   1.404       .  A
C410        C411   1.403       .  A
C410        H421   1.083       .  S
C411        C420   1.376       .  A
C411        C412   1.387       .  A
C412        S418   1.702       .  A
C412        C413   1.402       .  A
C413        C414   1.401       .  A
C413        H422   1.083   1_554  S
C414        C417   1.374       .  A
S415        C416   1.728       .  A
C416        C417   1.386       .  A
C417        H423   1.083       .  S
S418        C419   1.725       .  A
C419        C420   1.389       .  A
C420        H424   1.083       .  S
C425        S431   1.702       .  A
C425        C430   1.387       .  A
C425        C426   1.402       .  A
C426        C427   1.402       .  A
C426        H437   1.083       .  S
C427        C436   1.373       .  A
C427        C428   1.387       .  A
C428        S434   1.701       .  A
C428        C429   1.400       .  A
C429        C430   1.400       .  A
C429        H438   1.083       .  S
C430        C433   1.372       .  A
S431        C432   1.726       .  A
C432        C433   1.386       .  A
C433        H439   1.083       .  S
S434        C435   1.724       .  A
C435        C436   1.387       .  A
C436        H440   1.083   1_556  S
C441        S447   1.702       .  A
C441        C446   1.387       .  A
C441        C442   1.401       .  A
C442        C443   1.401       .  A
C442        H453   1.083       .  S
C443        C452   1.371       .  A
C443        C444   1.387       .  A
C444        S450   1.704       .  A
C444        C445   1.402       .  A
C445        C446   1.401       .  A
C445        H454   1.083       .  S
C446        C449   1.372       .  A
S447        C448   1.726       .  A
C448        C449   1.386       .  A
C449        H455   1.083       .  S
S450        C451   1.726       .  A
C451        C452   1.386       .  A
C452        H456   1.083       .  S
C457        S463   1.701       .  A
C457        C462   1.387       .  A
C457        C458   1.400       .  A
C458        C459   1.399       .  A
C458        H469   1.083       .  S
C459        C468   1.371       .  A
C459        C460   1.387       .  A
C460        S466   1.702       .  A
C460        C461   1.403       .  A
C461        C462   1.402       .  A
C461        H470   1.083       .  S
C462        C465   1.374       .  A
S463        C464   1.725       .  A
C464        C465   1.388       .  A
C465        H471   1.083       .  S
S466        C467   1.727       .  A
C467        C468   1.384       .  A
C468        H472   1.083       .  S
C473        S479   1.707       .  A
C473        C478   1.387   1_545  A
C473        C474   1.404       .  A
C474        C475   1.404       .  A
C474        H485   1.083       .  S
C475        C484   1.373       .  A
C475        C476   1.387   1_545  A
C476        S482   1.706       .  A
C476        C477   1.401       .  A
C477        C478   1.401       .  A
C477        H486   1.083       .  S
C478        C481   1.371       .  A
S479        C480   1.727       .  A
C480        C481   1.386   1_545  A
C481        H487   1.083       .  S
S482        C483   1.725       .  A
C483        C484   1.389   1_565  A
C484        H488   1.083       .  S
C489        S495   1.696       .  A
C489        C494   1.388       .  A
C489        C490   1.400       .  A
C490        C491   1.398       .  A
C490        H501   1.083       .  S
C491        C500   1.372       .  A
C491        C492   1.388       .  A
C492        S498   1.697   1_565  A
C492        C493   1.401       .  A
C493        C494   1.399       .  A
C493        H502   1.083   1_565  S
C494        C497   1.373       .  A
S495        C496   1.725       .  A
C496        C497   1.385       .  A
C497        H503   1.083   1_565  S
S498        C499   1.727   1_545  A
C499        C500   1.384       .  A
C500        H504   1.083       .  S
C505        S511   1.701   1_545  A
C505        C510   1.387       .  A
C505        C506   1.397       .  A
C506        C507   1.398       .  A
C506        H517   1.083   1_545  S
C507        C516   1.365       .  A
C507        C508   1.387       .  A
C508        S514   1.701       .  A
C508        C509   1.398       .  A
C509        C510   1.399       .  A
C509        H518   1.083       .  S
C510        C513   1.366       .  A
S511        C512   1.722   1_565  A
C512        C513   1.385       .  A
C513        H519   1.083       .  S
S514        C515   1.723       .  A
C515        C516   1.383       .  A
C516        H520   1.083   1_545  S
C521        S527   1.704       .  A
C521        C526   1.387       .  A
C521        C522   1.400       .  A
C522        C523   1.401       .  A
C522        H533   1.083       .  S
C523        C532   1.370       .  A
C523        C524   1.387       .  A
C524        S530   1.705       .  A
C524        C525   1.401       .  A
C525        C526   1.402       .  A
C525        H534   1.083   1_565  S
C526        C529   1.371   1_565  A
S527        C528   1.724       .  A
C528        C529   1.387   1_565  A
C529        H535   1.083       .  S
S530        C531   1.725       .  A
C531        C532   1.386       .  A
C532        H536   1.083       .  S
C537        S543   1.702       .  A
C537        C542   1.387       .  A
C537        C538   1.400       .  A
C538        C539   1.400       .  A
C538        H549   1.083       .  S
C539        C548   1.370       .  A
C539        C540   1.387       .  A
C540        S546   1.701       .  A
C540        C541   1.399       .  A
C541        C542   1.400       .  A
C541        H550   1.083       .  S
C542        C545   1.369       .  A
S543        C544   1.724       .  A
C544        C545   1.385       .  A
C545        H551   1.083   1_655  S
S546        C547   1.724       .  A
C547        C548   1.386       .  A
C548        H552   1.083       .  S
C553        S559   1.704       .  A
C553        C558   1.387   1_455  A
C553        C554   1.404       .  A
C554        C555   1.403       .  A
C554        H565   1.083       .  S
C555        C564   1.376       .  A
C555        C556   1.387   1_455  A
C556        S562   1.703       .  A
C556        C557   1.403       .  A
C557        C558   1.402       .  A
C557        H566   1.083       .  S
C558        C561   1.376       .  A
S559        C560   1.727       .  A
C560        C561   1.387   1_455  A
C561        H567   1.083       .  S
S562        C563   1.727       .  A
C563        C564   1.387   1_655  A
C564        H568   1.083       .  S
C569        S575   1.708       .  A
C569        C574   1.386       .  A
C569        C570   1.405       .  A
C570        C571   1.405       .  A
C570        H581   1.083       .  S
C571        C580   1.376       .  A
C571        C572   1.386       .  A
C572        S578   1.707   1_455  A
C572        C573   1.404       .  A
C573        C574   1.404       .  A
C573        H582   1.083       .  S
C574        C577   1.375       .  A
S575        C576   1.727       .  A
C576        C577   1.390       .  A
C577        H583   1.083       .  S
S578        C579   1.727   1_655  A
C579        C580   1.390       .  A
C580        H584   1.083       .  S
C585        S591   1.704       .  A
C585        C590   1.387   1_655  A
C585        C586   1.401       .  A
C586        C587   1.402       .  A
C586        H597   1.083       .  S
C587        C596   1.370       .  A
C587        C588   1.387   1_655  A
C588        S594   1.703       .  A
C588        C589   1.400       .  A
C589        C590   1.400       .  A
C589        H598   1.083       .  S
C590        C593   1.369       .  A
S591        C592   1.725   1_655  A
C592        C593   1.384       .  A
C593        H599   1.083       .  S
S594        C595   1.722       .  A
C595        C596   1.387   1_455  A
C596        H600   1.083       .  S
