geometry optimzed in LAMMPS
_audit_creation_date              2020-11-30 
_audit_creation_method            'lammps2cif' 
_symmetry_space_group_name_H-M    'P1' 
_symmetry_Int_Tables_number       1 
_symmetry_cell_setting            triclinic 
loop_ 
_symmetry_equiv_pos_as_xyz 
  x,y,z 
_cell_length_a                    42.15326774654344 
_cell_length_b                    42.242435275722585 
_cell_length_c                    30.403827941036866 
_cell_angle_alpha                 90.18407621142237 
_cell_angle_beta                  90.04073228932667 
_cell_angle_gamma                 90.18893564905724 
loop_ 
_atom_site_label 
_atom_site_type_symbol 
_atom_site_fract_x 
_atom_site_fract_y 
_atom_site_fract_z 
_atom_site_charge 
O1          O  0.41603177  0.49716723  0.41851970    -0.74860
O2          O  0.41027530  0.04612960  0.44959412    -0.53760
C3          C  0.40041828  0.02271987  0.42599833     0.78870
O4          O  0.48975735  0.42327994  0.57794518    -0.59460
O5          O  0.03863246  0.41734504  0.54626732    -0.52490
C6          C  0.01503358  0.40743583  0.56945217     0.70890
O7          O  0.41446036  0.49781142  0.57701373    -0.74010
O8          O  0.40936038  0.04627338  0.54450524    -0.54580
C9          C  0.39915034  0.02339703  0.56859535     0.76890
O10         O  0.49111561  0.42362180  0.41885104    -0.59160
O11         O  0.03888824  0.41684939  0.45325181    -0.52280
C12         C  0.01566723  0.40722681  0.42893598     0.73480
Zr13       Zr  0.46823074  0.47512440  0.43277789     2.54710
O14         O  0.42792421  0.43428646  0.42324892    -0.79720
O15         O  0.47400850  0.48016640  0.35345721    -0.93140
Zr16       Zr  0.46639089  0.47469484  0.56289871     2.64680
O17         O  0.42443305  0.43495523  0.56657104    -0.98100
O18         O  0.47028491  0.47813185  0.64266788    -0.80160
O19         O  0.44514999  0.49608291  0.49740215    -0.83510
O20         O  0.48904016  0.45340911  0.49825608    -2.18220
O21         O  0.08443551  0.01696668  0.41889252    -0.66900
O22         O  0.09230467  0.46968066  0.45313360    -0.51470
C23         C  0.10134258  0.49267501  0.42815630     0.71860
O24         O  0.00965994  0.09203478  0.57779340    -0.59810
O25         O  0.46146318  0.09811669  0.54482244    -0.51790
C26         C  0.48457868  0.10798576  0.56906575     0.73670
O27         O  0.08109318  0.01625658  0.58423667    -0.71210
O28         O  0.09170442  0.47037390  0.54790831    -0.49880
C29         C  0.09901770  0.49261637  0.57546934     0.75050
O30         O  0.01112860  0.09179157  0.42036955    -0.66540
O31         O  0.46240577  0.09801214  0.45182411    -0.53730
C32         C  0.48594828  0.10778861  0.42848071     0.73430
Zr33       Zr  0.03334947  0.04017183  0.43451691     2.77540
O34         O  0.07340710  0.08165066  0.42827910    -0.97290
O35         O  0.02860424  0.03576301  0.35493656    -0.78110
Zr36       Zr  0.03139652  0.04007257  0.56466910     2.70070
O37         O  0.07335575  0.07937485  0.57277667    -0.79350
O38         O  0.02431384  0.03710323  0.64398047    -0.98440
Zr39       Zr  0.45602562  0.05143464  0.49796966     2.21500
Zr40       Zr  0.04504281  0.46386712  0.49966547     2.11130
O41         O  0.05494416  0.01951863  0.50018129    -2.47130
O42         O  0.01137289  0.06219649  0.49918280    -0.79150
O43         O  0.02373545  0.48492493  0.43269128    -0.71340
O44         O  0.47630673  0.02987633  0.56494835    -2.32300
O45         O  0.47815750  0.03020664  0.43172999    -2.28510
O46         O  0.02184136  0.48484193  0.56559876    -0.73100
H47         H  0.48461982  0.43099770  0.49812248     0.78890
H48         H  0.46644000  0.03952178  0.59031750     0.79980
H49         H  0.07739222  0.02407843  0.50099325     0.82210
H50         H  0.46882521  0.03983825  0.40603131     0.79810
H51         H  0.45742750  0.49684172  0.65072190     0.42850
H52         H  0.03035351  0.01516468  0.65161302     0.41820
H53         H  0.07785187  0.08633427  0.54233284     0.41500
H54         H  0.08961382  0.07643595  0.45068300     0.39430
H55         H  0.03703676  0.01449383  0.34789290     0.42560
H56         H  0.46008452  0.49806651  0.34539912     0.37350
H57         H  0.42026984  0.42999254  0.45344251     0.43460
H58         H  0.42999773  0.41909469  0.54382400     0.39880
H59         H  0.08395193  0.07788288  0.39965512     0.44800
H60         H  0.46310365  0.46124880  0.34136715     0.43520
H61         H  0.42771544  0.42397151  0.59492454     0.43660
H62         H  0.04165924  0.05036267  0.65613735     0.44010
C63         C  0.48746025  0.23002845  0.34618904     0.03570
C64         C  0.49624629  0.25725454  0.36974762    -0.12580
C65         C  0.50173102  0.28579895  0.34771642     0.01070
C66         C  0.49843140  0.28709946  0.30194577    -0.11110
C67         C  0.48925550  0.26008083  0.27834907     0.03560
C68         C  0.48366916  0.23156126  0.30045137    -0.10530
H69         H  0.49902717  0.25617246  0.40516780     0.09150
H70         H  0.50260968  0.30917641  0.28476461     0.06680
H71         H  0.47765360  0.21039281  0.28194860     0.06530
C72         C  0.22190240  0.00468360  0.34074468     0.03570
C73         C  0.22114479  0.00691972  0.29479556    -0.12580
C74         C  0.24872701  0.01467346  0.27136826     0.01070
C75         C  0.27737162  0.01954043  0.29404637    -0.11110
C76         C  0.27849427  0.01702317  0.34019062     0.03560
C77         C  0.25039729  0.01020385  0.36326036    -0.10530
H78         H  0.19900085  0.00320050  0.27734178     0.09150
H79         H  0.29882144  0.02452372  0.27566633     0.06680
H80         H  0.25055549  0.00939885  0.39888590     0.06530
C81         C  0.22136326  0.00939285  0.66038361     0.03570
C82         C  0.24949815  0.01387719  0.63633534    -0.12580
C83         C  0.27846416  0.02045911  0.65805224     0.01070
C84         C  0.27871155  0.02237209  0.70437091    -0.11110
C85         C  0.25063539  0.01856714  0.72837344     0.03560
C86         C  0.22235674  0.01163653  0.70641766    -0.10530
H87         H  0.24864846  0.01287128  0.60075335     0.09150
H88         H  0.30076012  0.02594584  0.72202133     0.06680
H89         H  0.20103349  0.00751205  0.72551447     0.06530
C90         C  0.48639911  0.23042920  0.65239878     0.03570
C91         C  0.49490327  0.25779657  0.62914324    -0.12580
C92         C  0.50004952  0.28649466  0.65144818     0.01070
C93         C  0.49664963  0.28756411  0.69729523    -0.11110
C94         C  0.48797957  0.26035428  0.72059989     0.03560
C95         C  0.48267275  0.23183045  0.69815157    -0.10530
H96         H  0.49799566  0.25661148  0.59378030     0.09150
H97         H  0.50053713  0.30959608  0.71490565     0.06680
H98         H  0.47697436  0.21055029  0.71639636     0.06530
C99         C  0.25013433  0.48892887  0.15242275     0.03570
C100        C  0.25312837  0.48868757  0.19836419    -0.12580
C101        C  0.24768350  0.01620182  0.22296624     0.01070
C102        C  0.23978092  0.04450063  0.20148121    -0.11110
C103        C  0.23712455  0.04540214  0.15528873     0.03560
C104        C  0.24203069  0.01729962  0.13122223    -0.10530
H105        H  0.25862131  0.46680247  0.21522559     0.09150
H106        H  0.23599807  0.06575954  0.22077836     0.06680
H107        H  0.23932073  0.01736874  0.09580920     0.06530
O108        O  0.23162430  0.34894935  0.91735572    -0.74860
O109        O  0.27872545  0.35571412  0.95325456    -0.53760
C110        C  0.25681585  0.36487753  0.92655501     0.78870
O111        O  0.15539908  0.27653482  0.08315114    -0.59460
O112        O  0.14535579  0.22998827  0.04760351    -0.52490
C113        C  0.13788346  0.25232164  0.07461802     0.70890
O114        O  0.22928691  0.35245984  0.07483634    -0.74010
O115        O  0.27912750  0.35577361  0.04566608    -0.54580
C116        C  0.25549745  0.36712880  0.06741101     0.76890
O117        O  0.15538726  0.27584414  0.91592095    -0.59160
O118        O  0.14503487  0.23012692  0.95300509    -0.52280
C119        C  0.13759780  0.25208446  0.92547731     0.73480
Zr120      Zr  0.20613815  0.29901887  0.93454545     2.54710
O121        O  0.16637977  0.34063004  0.93212091    -0.79720
O122        O  0.20920465  0.29575238  0.85469328    -0.93140
Zr123      Zr  0.20592155  0.30041288  0.06414317     2.64680
O124        O  0.16595645  0.34177992  0.06987982    -0.98100
O125        O  0.21199645  0.29844211  0.14373453    -0.80160
O126        O  0.22841157  0.32097537  0.99903434    -0.83510
O127        O  0.18292892  0.27906732  0.99958134    -2.18220
O128        O  0.24383173  0.18071634  0.91981426    -0.66900
O129        O  0.19585189  0.17555993  0.95413504    -0.51470
C130        C  0.21849645  0.16522334  0.92946760     0.71860
O131        O  0.31974433  0.25559354  0.08228051    -0.59810
O132        O  0.33000264  0.30183375  0.04661665    -0.51790
C133        C  0.33747270  0.27954539  0.07356447     0.73670
O134        O  0.24414113  0.18265975  0.08291000    -0.71210
O135        O  0.19649067  0.17644221  0.04780951    -0.49880
C136        C  0.21900279  0.16683131  0.07327635     0.75050
O137        O  0.31970474  0.25416449  0.91795514    -0.66540
O138        O  0.32975653  0.30122792  0.95195152    -0.53730
C139        C  0.33737844  0.27835296  0.92584189     0.73430
Zr140      Zr  0.26853076  0.23165711  0.93532559     2.77540
O141        O  0.30946477  0.19124549  0.92984317    -0.97290
O142        O  0.26327384  0.23544156  0.85577373    -0.78110
Zr143      Zr  0.26837234  0.23319803  0.06557159     2.70070
O144        O  0.30803441  0.19182372  0.07295578    -0.79350
O145        O  0.26308720  0.23904548  0.14488529    -0.98440
Zr146      Zr  0.28352964  0.30863928  0.99944825     2.21500
Zr147      Zr  0.19146425  0.22305164  0.00027046     2.11130
O148        O  0.24674273  0.21100777  0.00072903    -2.47130
O149        O  0.29162689  0.25277490  0.00020925    -0.79150
O150        O  0.21372016  0.24344212  0.93363560    -0.71340
O151        O  0.26076408  0.28866533  0.06607413    -2.32300
O152        O  0.26092371  0.28711975  0.93340983    -2.28510
O153        O  0.21353509  0.24485771  0.06641754    -0.73100
H154        H  0.16056796  0.28394439  0.99946844     0.78890
H155        H  0.27060549  0.29819484  0.09161355     0.79980
H156        H  0.25038123  0.18847110  0.00112032     0.82210
H157        H  0.27083179  0.29611516  0.90765585     0.79810
H158        H  0.22818177  0.31476016  0.15061792     0.42850
H159        H  0.24147276  0.23114992  0.15149294     0.41820
H160        H  0.31170885  0.18439299  0.04246416     0.41500
H161        H  0.30316599  0.17474193  0.95121554     0.39430
H162        H  0.24084238  0.22989075  0.84977188     0.42560
H163        H  0.23044176  0.30422770  0.84721392     0.37350
H164        H  0.16645091  0.34970464  0.96219259     0.43460
H165        H  0.14886585  0.33526673  0.04936920     0.39880
H166        H  0.30625473  0.18132293  0.90061988     0.44800
H167        H  0.19423721  0.31210318  0.84421922     0.43520
H168        H  0.15666176  0.33925205  0.09956698     0.43660
H169        H  0.27740510  0.22277286  0.15717242     0.44010
C170        C  0.45874388  0.26945958  0.16219995     0.03570
C171        C  0.45994615  0.26890978  0.20846865    -0.12580
C172        C  0.48797307  0.26115988  0.23023278     0.01070
C173        C  0.01538879  0.25517148  0.20622992    -0.11110
C174        C  0.01550861  0.25768724  0.16024163     0.03560
C175        C  0.48691515  0.26439476  0.13814000    -0.10530
H176        H  0.43901588  0.27424720  0.22774871     0.09150
H177        H  0.03699363  0.24925509  0.22371638     0.06680
H178        H  0.48661976  0.26579451  0.10258986     0.06530
C179        C  0.25305988  0.48842648  0.84464780     0.03570
C180        C  0.24277029  0.01529544  0.86819377    -0.12580
C181        C  0.23693915  0.04419563  0.84642116     0.01070
C182        C  0.24039089  0.04544945  0.80037336    -0.11110
C183        C  0.25072580  0.01884320  0.77679746     0.03560
C184        C  0.25771743  0.49089853  0.79905636    -0.10530
H185        H  0.23830610  0.01350528  0.90316193     0.09150
H186        H  0.23532920  0.06712645  0.78279089     0.06680
H187        H  0.26559980  0.47054740  0.78025839     0.06530
C188        C  0.45873142  0.26977172  0.83732781     0.03570
C189        C  0.45913105  0.26819933  0.79113351    -0.12580
C190        C  0.48717416  0.26135120  0.76878734     0.01070
C191        C  0.01509453  0.25644474  0.79230069    -0.11110
C192        C  0.01574283  0.25962492  0.83826813     0.03560
C193        C  0.48727570  0.26600277  0.86084574    -0.10530
H194        H  0.43751910  0.27194862  0.77254006     0.09150
H195        H  0.03653938  0.25055175  0.77444436     0.06680
H196        H  0.48725643  0.26778942  0.89639865     0.06530
C197        C  0.23995858  0.11109914  0.92999763    -0.20870
C198        C  0.21757591  0.13235671  0.91317303    -0.08910
C199        C  0.19942884  0.12349200  0.87642179     0.29950
C200        C  0.20472770  0.09414679  0.85581721    -0.20870
C201        C  0.22822358  0.07331047  0.87157624    -0.08930
C202        C  0.24523887  0.08188664  0.90968361     0.29950
F203        F  0.26877590  0.06321027  0.92540121    -0.19450
H204        H  0.25463403  0.11790962  0.95776378     0.18320
H205        H  0.19113503  0.08810603  0.82672325     0.18320
F206        F  0.17814169  0.14393203  0.85889271    -0.19440
C207        C  0.27229421  0.42255615  0.92655299    -0.20870
C208        C  0.25960078  0.39602804  0.90460737    -0.08910
C209        C  0.24618162  0.40010648  0.86263032     0.29950
C210        C  0.24429632  0.43005334  0.84393964    -0.20870
C211        C  0.25617888  0.45686159  0.86598678    -0.08930
C212        C  0.27058068  0.45280569  0.90748794     0.29950
F213        F  0.28310507  0.47790953  0.92947560    -0.19450
H214        H  0.28255916  0.42003630  0.95902096     0.18320
H215        H  0.23276414  0.43227708  0.81226256     0.18320
F216        F  0.23444263  0.37506491  0.83961686    -0.19440
C217        C  0.37154405  0.26160971  0.13498672    -0.20870
C218        C  0.36836745  0.28023345  0.09700587    -0.08910
C219        C  0.39522114  0.29643410  0.08101985     0.29950
C220        C  0.42465776  0.29322704  0.10233874    -0.20870
C221        C  0.42770239  0.27387151  0.13977159    -0.08930
C222        C  0.40065579  0.25808481  0.15571288     0.29950
F223        F  0.40245308  0.23788080  0.19026810    -0.19450
H224        H  0.35144725  0.24880497  0.14833683     0.18320
H225        H  0.44508281  0.30574539  0.08948547     0.18320
F226        F  0.39338322  0.31431763  0.04412427    -0.19440
C227        C  0.08064783  0.23520266  0.07894985    -0.20870
C228        C  0.10678210  0.25138727  0.09723248    -0.08910
C229        C  0.10236175  0.26913792  0.13603456     0.29950
C230        C  0.07255708  0.27137462  0.15511081    -0.20870
C231        C  0.04633316  0.25551590  0.13695778    -0.08930
C232        C  0.05055704  0.23726126  0.09858636     0.29950
F233        F  0.02590193  0.22101814  0.08061978    -0.19450
H234        H  0.08337380  0.22146715  0.04908045     0.18320
H235        H  0.06998498  0.28579075  0.18442534     0.18320
F236        F  0.12688487  0.28443649  0.15594546    -0.19440
C237        C  0.37358084  0.25579116  0.86948833    -0.20870
C238        C  0.36848372  0.27850881  0.90273754    -0.08910
C239        C  0.39364561  0.29904098  0.91416517     0.29950
C240        C  0.42323731  0.29618046  0.89318215    -0.20870
C241        C  0.42796467  0.27314160  0.86032658    -0.08930
C242        C  0.40278258  0.25298676  0.84881803     0.29950
F243        F  0.40664945  0.22974516  0.81833454    -0.19450
H244        H  0.35497336  0.23953313  0.85955039     0.18320
H245        H  0.44238715  0.31204017  0.90234395     0.18320
F246        F  0.38995114  0.32138464  0.94588749    -0.19440
C247        C  0.10287069  0.26915374  0.86425016    -0.20870
C248        C  0.10638739  0.25140942  0.90296944    -0.08910
C249        C  0.07949899  0.23633874  0.92088828     0.29950
C250        C  0.04982744  0.23922846  0.90020173    -0.20870
C251        C  0.04659389  0.25717465  0.86153998    -0.08930
C252        C  0.07349578  0.27236558  0.84411772     0.29950
F253        F  0.07133696  0.29126595  0.80818950    -0.19450
H254        H  0.12294353  0.28129207  0.84969249     0.18320
H255        H  0.02943684  0.22731748  0.91422330     0.18320
F256        F  0.08159198  0.21977183  0.95892450    -0.19440
C257        C  0.24042603  0.11285726  0.07285683    -0.20870
C258        C  0.21841798  0.13427407  0.09027000    -0.08910
C259        C  0.20146659  0.12606745  0.12827308     0.29950
C260        C  0.20699001  0.09683831  0.14882163    -0.20870
C261        C  0.22975604  0.07558861  0.13200433    -0.08930
C262        C  0.24620119  0.08393639  0.09335534     0.29950
F263        F  0.26946455  0.06520360  0.07686383    -0.19450
H264        H  0.25443406  0.11931858  0.04436176     0.18320
H265        H  0.19387277  0.09106039  0.17834792     0.18320
F266        F  0.18093348  0.14691153  0.14672050    -0.19440
C267        C  0.27950894  0.43875352  0.13486303    -0.20870
C268        C  0.25370112  0.45907907  0.12700622    -0.08910
C269        C  0.23027482  0.44974269  0.09662059     0.29950
C270        C  0.23208115  0.42029180  0.07593879    -0.20870
C271        C  0.25731365  0.39967250  0.08467116    -0.08930
C272        C  0.28144426  0.40928159  0.11365627     0.29950
F273        F  0.30568672  0.38945742  0.12351446    -0.19450
H274        H  0.29783008  0.44547392  0.15811281     0.18320
H275        H  0.21313140  0.41308817  0.05393135     0.18320
F276        F  0.20455870  0.46817790  0.08891972    -0.19440
C277        C  0.03673244  0.36503316  0.61799339    -0.20870
C278        C  0.01514731  0.37478667  0.58574603    -0.08910
C279        C  0.49058909  0.35426282  0.57260254     0.29950
C280        C  0.48688045  0.32489452  0.59269339    -0.20870
C281        C  0.50723261  0.31573290  0.62677241    -0.08930
C282        C  0.03270294  0.33569311  0.63871935     0.29950
F283        F  0.05322075  0.32706513  0.67091731    -0.19450
H284        H  0.05565964  0.38071396  0.62855518     0.18320
H285        H  0.46712067  0.30992336  0.58308953     0.18320
F286        F  0.46947448  0.36318208  0.54129295    -0.19440
C287        C  0.45610523  0.18330626  0.62476640    -0.20870
C288        C  0.48492658  0.19975020  0.62947622    -0.08910
C289        C  0.01293341  0.18643918  0.61311734     0.29950
C290        C  0.01222349  0.15689889  0.59278897    -0.20870
C291        C  0.48354639  0.14013393  0.58804498    -0.08930
C292        C  0.45529476  0.15371139  0.60372114     0.29950
F293        F  0.42731775  0.13789592  0.60034637    -0.19450
H294        H  0.43436227  0.19336353  0.63753124     0.18320
H295        H  0.03430175  0.14696721  0.58092481     0.18320
F296        F  0.04115066  0.20165249  0.61804761    -0.19440
C297        C  0.48364634  0.32711861  0.39902006    -0.20870
C298        C  0.50793743  0.31494720  0.37277638    -0.08910
C299        C  0.03655948  0.33187326  0.36839969     0.29950
C300        C  0.04020931  0.36141625  0.38902219    -0.20870
C301        C  0.01502352  0.37435427  0.41314903    -0.08930
C302        C  0.48697194  0.35665589  0.41876830     0.29950
F303        F  0.46232689  0.36842111  0.44240279    -0.19450
H304        H  0.46149425  0.31429115  0.40261219     0.18320
H305        H  0.06190033  0.37480088  0.38436275     0.18320
F306        F  0.06052813  0.32011534  0.34352247    -0.19440
C307        C  0.45704681  0.15234093  0.39204663    -0.20870
C308        C  0.48509171  0.13988409  0.40982966    -0.08910
C309        C  0.01328329  0.15780861  0.40776894     0.29950
C310        C  0.01345632  0.18734889  0.38774457    -0.20870
C311        C  0.48577985  0.19939512  0.36885144    -0.08930
C312        C  0.45744253  0.18185231  0.37110931     0.29950
F313        F  0.43032201  0.19329799  0.35320686    -0.19450
H314        H  0.43517585  0.13883606  0.39318758     0.18320
H315        H  0.03544518  0.20066560  0.38618608     0.18320
F316        F  0.04075125  0.14682647  0.42530263    -0.19440
C317        C  0.13441732  0.01582575  0.63249758    -0.20710
C318        C  0.13026750  0.49334439  0.59855784    -0.08910
C319        C  0.15676200  0.47544089  0.58522151     0.29950
C320        C  0.18660502  0.48069307  0.60499696    -0.20870
C321        C  0.19038869  0.00378231  0.63820724    -0.08930
C322        C  0.16388189  0.02135891  0.65141849     0.29950
F323        F  0.16659036  0.04491464  0.68172084    -0.19450
H324        H  0.11485429  0.03022387  0.64392983     0.18320
H325        H  0.20673069  0.46672470  0.59446998     0.18320
F326        F  0.15413407  0.45362182  0.55256578    -0.19440
C327        C  0.36130685  0.04689118  0.62244788    -0.20870
C328        C  0.36726534  0.02582369  0.58779896    -0.08910
C329        C  0.34345373  0.00460931  0.57446980     0.29950
C330        C  0.31444263  0.00363565  0.59663246    -0.20870
C331        C  0.30858974  0.02379055  0.63264524    -0.08930
C332        C  0.33223485  0.04599214  0.64477558     0.29950
F333        F  0.32739207  0.06682575  0.67815852    -0.19450
H334        H  0.37954590  0.06335018  0.63309183     0.18320
H335        H  0.29698747  0.98621479  0.58652095     0.18320
F336        F  0.34856152  0.98438140  0.54043348    -0.19440
C337        C  0.17806046  0.47007351  0.36984273    -0.20870
C338        C  0.19226533  0.00010376  0.36563410    -0.08910
C339        C  0.17771271  0.02646791  0.38469950     0.29950
C340        C  0.14886161  0.02314733  0.40635759    -0.20870
C341        C  0.13380223  0.49345352  0.40965406    -0.08930
C342        C  0.14901439  0.46663704  0.39216049     0.29950
F343        F  0.13521729  0.43763756  0.39476839    -0.19450
H344        H  0.18926136  0.44949053  0.35537485     0.18320
H345        H  0.13789708  0.04415061  0.42000109     0.18320
F346        F  0.19097632  0.05568250  0.38106910    -0.19440
C347        C  0.34689169  0.99984866  0.41743789    -0.20870
C348        C  0.36840321  0.02400504  0.40697434    -0.08910
C349        C  0.36001294  0.04676641  0.37555039     0.29950
C350        C  0.33055759  0.04475064  0.35416478    -0.20870
C351        C  0.30906671  0.02021290  0.36424380    -0.08930
C352        C  0.31747414  0.99796921  0.39659927     0.29950
F353        F  0.29796654  0.97339757  0.40658938    -0.19450
H354        H  0.35323791  0.98192238  0.44127431     0.18320
H355        H  0.32462529  0.06218105  0.32946965     0.18320
F356        F  0.38084495  0.06986744  0.36404437    -0.19440
O357        O  0.41603178  0.99716723  0.41851969    -0.74860
O358        O  0.41027530  0.54612960  0.44959412    -0.53760
C359        C  0.40041828  0.52271987  0.42599834     0.78870
O360        O  0.48975735  0.92327994  0.57794518    -0.59460
O361        O  0.03863247  0.91734504  0.54626731    -0.52490
C362        C  0.01503360  0.90743583  0.56945216     0.70890
O363        O  0.41446036  0.99781142  0.57701372    -0.74010
O364        O  0.40936038  0.54627338  0.54450524    -0.54580
C365        C  0.39915035  0.52339704  0.56859535     0.76890
O366        O  0.49111562  0.92362180  0.41885104    -0.59160
O367        O  0.03888824  0.91684939  0.45325180    -0.52280
C368        C  0.01566724  0.90722681  0.42893597     0.73480
Zr369      Zr  0.46823075  0.97512440  0.43277789     2.54710
O370        O  0.42792422  0.93428646  0.42324892    -0.79720
O371        O  0.47400851  0.98016640  0.35345721    -0.93140
Zr372      Zr  0.46639089  0.97469484  0.56289871     2.64680
O373        O  0.42443305  0.93495523  0.56657105    -0.98100
O374        O  0.47028491  0.97813185  0.64266788    -0.80160
O375        O  0.44515000  0.99608291  0.49740215    -0.83510
O376        O  0.48904016  0.95340911  0.49825608    -2.18220
O377        O  0.08443550  0.51696669  0.41889253    -0.66900
O378        O  0.09230468  0.96968065  0.45313358    -0.51470
C379        C  0.10134259  0.99267500  0.42815629     0.71860
O380        O  0.00965993  0.59203478  0.57779340    -0.59810
O381        O  0.46146319  0.59811669  0.54482244    -0.51790
C382        C  0.48457868  0.60798576  0.56906575     0.73670
O383        O  0.08109317  0.51625659  0.58423667    -0.71210
O384        O  0.09170443  0.97037389  0.54790830    -0.49880
C385        C  0.09901771  0.99261636  0.57546935     0.75050
O386        O  0.01112859  0.59179157  0.42036955    -0.66540
O387        O  0.46240577  0.59801215  0.45182411    -0.53730
C388        C  0.48594828  0.60778861  0.42848071     0.73430
Zr389      Zr  0.03334946  0.54017183  0.43451692     2.77540
O390        O  0.07340708  0.58165066  0.42827911    -0.97290
O391        O  0.02860423  0.53576301  0.35493657    -0.78110
Zr392      Zr  0.03139650  0.54007257  0.56466911     2.70070
O393        O  0.07335572  0.57937485  0.57277674    -0.79350
O394        O  0.02431381  0.53710320  0.64398047    -0.98440
Zr395      Zr  0.45602562  0.55143464  0.49796966     2.21500
Zr396      Zr  0.04504282  0.96386711  0.49966546     2.11130
O397        O  0.05494414  0.51951863  0.50018130    -2.47130
O398        O  0.01137288  0.56219649  0.49918281    -0.79150
O399        O  0.02373546  0.98492492  0.43269127    -0.71340
O400        O  0.47630673  0.52987633  0.56494835    -2.32300
O401        O  0.47815750  0.53020664  0.43172999    -2.28510
O402        O  0.02184138  0.98484193  0.56559875    -0.73100
H403        H  0.48461983  0.93099770  0.49812248     0.78890
H404        H  0.46644000  0.53952178  0.59031750     0.79980
H405        H  0.07739220  0.52407844  0.50099326     0.82210
H406        H  0.46882521  0.53983825  0.40603131     0.79810
H407        H  0.45742748  0.99684171  0.65072190     0.42850
H408        H  0.03035350  0.51516466  0.65161302     0.41820
H409        H  0.07785188  0.58633426  0.54233291     0.41500
H410        H  0.08961381  0.57643595  0.45068301     0.39430
H411        H  0.03703674  0.51449383  0.34789291     0.42560
H412        H  0.46008454  0.99806651  0.34539911     0.37350
H413        H  0.42026985  0.92999254  0.45344251     0.43460
H414        H  0.42999773  0.91909469  0.54382401     0.39880
H415        H  0.08395191  0.57788289  0.39965514     0.44800
H416        H  0.46310366  0.96124880  0.34136715     0.43520
H417        H  0.42771544  0.92397151  0.59492454     0.43660
H418        H  0.04165919  0.55036266  0.65613738     0.44010
C419        C  0.48746026  0.73002846  0.34618905     0.03570
C420        C  0.49624630  0.75725454  0.36974763    -0.12580
C421        C  0.50173103  0.78579896  0.34771643     0.01070
C422        C  0.49843141  0.78709947  0.30194578    -0.11110
C423        C  0.48925551  0.76008084  0.27834908     0.03560
C424        C  0.48366916  0.73156127  0.30045138    -0.10530
H425        H  0.49902718  0.75617246  0.40516781     0.09150
H426        H  0.50260969  0.80917642  0.28476462     0.06680
H427        H  0.47765360  0.71039282  0.28194861     0.06530
C428        C  0.22190239  0.50468360  0.34074469     0.03570
C429        C  0.22114478  0.50691972  0.29479558    -0.12580
C430        C  0.24872700  0.51467346  0.27136827     0.01070
C431        C  0.27737161  0.51954043  0.29404639    -0.11110
C432        C  0.27849426  0.51702318  0.34019063     0.03560
C433        C  0.25039728  0.51020385  0.36326038    -0.10530
H434        H  0.19900084  0.50320050  0.27734180     0.09150
H435        H  0.29882144  0.52452372  0.27566634     0.06680
H436        H  0.25055548  0.50939885  0.39888592     0.06530
C437        C  0.22136326  0.50939285  0.66038360     0.03570
C438        C  0.24949815  0.51387720  0.63633533    -0.12580
C439        C  0.27846416  0.52045911  0.65805224     0.01070
C440        C  0.27871154  0.52237208  0.70437091    -0.11110
C441        C  0.25063538  0.51856714  0.72837344     0.03560
C442        C  0.22235673  0.51163653  0.70641765    -0.10530
H443        H  0.24864846  0.51287129  0.60075335     0.09150
H444        H  0.30076011  0.52594582  0.72202133     0.06680
H445        H  0.20103348  0.50751206  0.72551446     0.06530
C446        C  0.48639911  0.73042920  0.65239879     0.03570
C447        C  0.49490327  0.75779657  0.62914324    -0.12580
C448        C  0.50004952  0.78649466  0.65144818     0.01070
C449        C  0.49664963  0.78756411  0.69729522    -0.11110
C450        C  0.48797957  0.76035428  0.72059989     0.03560
C451        C  0.48267275  0.73183045  0.69815157    -0.10530
H452        H  0.49799566  0.75661148  0.59378030     0.09150
H453        H  0.50053713  0.80959609  0.71490565     0.06680
H454        H  0.47697437  0.71055030  0.71639636     0.06530
C455        C  0.25013433  0.98892887  0.15242273     0.03570
C456        C  0.25312838  0.98868757  0.19836417    -0.12580
C457        C  0.24768350  0.51620182  0.22296625     0.01070
C458        C  0.23978091  0.54450063  0.20148123    -0.11110
C459        C  0.23712455  0.54540214  0.15528874     0.03560
C460        C  0.24203069  0.51729962  0.13122224    -0.10530
H461        H  0.25862132  0.96680247  0.21522557     0.09150
H462        H  0.23599806  0.56575954  0.22077837     0.06680
H463        H  0.23932073  0.51736874  0.09580921     0.06530
O464        O  0.23162430  0.84894935  0.91735572    -0.74860
O465        O  0.27872545  0.85571412  0.95325455    -0.53760
C466        C  0.25681585  0.86487753  0.92655500     0.78870
O467        O  0.15539908  0.77653482  0.08315113    -0.59460
O468        O  0.14535580  0.72998826  0.04760351    -0.52490
C469        C  0.13788347  0.75232163  0.07461802     0.70890
O470        O  0.22928691  0.85245984  0.07483632    -0.74010
O471        O  0.27912750  0.85577361  0.04566607    -0.54580
C472        C  0.25549745  0.86712880  0.06741100     0.76890
O473        O  0.15538727  0.77584413  0.91592095    -0.59160
O474        O  0.14503487  0.73012692  0.95300509    -0.52280
C475        C  0.13759780  0.75208445  0.92547731     0.73480
Zr476      Zr  0.20613815  0.79901887  0.93454544     2.54710
O477        O  0.16637978  0.84063004  0.93212090    -0.79720
O478        O  0.20920466  0.79575237  0.85469327    -0.93140
Zr479      Zr  0.20592155  0.80041287  0.06414317     2.64680
O480        O  0.16595645  0.84177991  0.06987981    -0.98100
O481        O  0.21199646  0.79844211  0.14373453    -0.80160
O482        O  0.22841157  0.82097536  0.99903433    -0.83510
O483        O  0.18292893  0.77906732  0.99958133    -2.18220
O484        O  0.24383174  0.68071634  0.91981427    -0.66900
O485        O  0.19585189  0.67555993  0.95413504    -0.51470
C486        C  0.21849646  0.66522334  0.92946760     0.71860
O487        O  0.31974433  0.75559354  0.08228052    -0.59810
O488        O  0.33000264  0.80183375  0.04661665    -0.51790
C489        C  0.33747270  0.77954539  0.07356447     0.73670
O490        O  0.24414113  0.68265975  0.08291000    -0.71210
O491        O  0.19649068  0.67644221  0.04780951    -0.49880
C492        C  0.21900279  0.66683131  0.07327635     0.75050
O493        O  0.31970475  0.75416449  0.91795515    -0.66540
O494        O  0.32975653  0.80122792  0.95195152    -0.53730
C495        C  0.33737845  0.77835296  0.92584189     0.73430
Zr496      Zr  0.26853077  0.73165711  0.93532559     2.77540
O497        O  0.30946478  0.69124549  0.92984317    -0.97290
O498        O  0.26327385  0.73544156  0.85577373    -0.78110
Zr499      Zr  0.26837235  0.73319803  0.06557158     2.70070
O500        O  0.30803442  0.69182372  0.07295578    -0.79350
O501        O  0.26308720  0.73904548  0.14488529    -0.98440
Zr502      Zr  0.28352965  0.80863928  0.99944825     2.21500
Zr503      Zr  0.19146425  0.72305164  0.00027046     2.11130
O504        O  0.24674273  0.71100777  0.00072903    -2.47130
O505        O  0.29162690  0.75277490  0.00020925    -0.79150
O506        O  0.21372017  0.74344212  0.93363559    -0.71340
O507        O  0.26076408  0.78866533  0.06607413    -2.32300
O508        O  0.26092371  0.78711975  0.93340982    -2.28510
O509        O  0.21353509  0.74485771  0.06641753    -0.73100
H510        H  0.16056796  0.78394439  0.99946843     0.78890
H511        H  0.27060549  0.79819485  0.09161355     0.79980
H512        H  0.25038124  0.68847110  0.00112032     0.82210
H513        H  0.27083180  0.79611516  0.90765584     0.79810
H514        H  0.22818177  0.81476017  0.15061791     0.42850
H515        H  0.24147276  0.73114992  0.15149293     0.41820
H516        H  0.31170885  0.68439299  0.04246417     0.41500
H517        H  0.30316600  0.67474193  0.95121554     0.39430
H518        H  0.24084239  0.72989074  0.84977188     0.42560
H519        H  0.23044176  0.80422770  0.84721391     0.37350
H520        H  0.16645091  0.84970463  0.96219257     0.43460
H521        H  0.14886585  0.83526672  0.04936919     0.39880
H522        H  0.30625474  0.68132292  0.90061988     0.44800
H523        H  0.19423721  0.81210316  0.84421921     0.43520
H524        H  0.15666176  0.83925205  0.09956697     0.43660
H525        H  0.27740511  0.72277286  0.15717242     0.44010
C526        C  0.45874388  0.76945958  0.16219996     0.03570
C527        C  0.45994615  0.76890978  0.20846866    -0.12580
C528        C  0.48797307  0.76115988  0.23023279     0.01070
C529        C  0.01538879  0.75517148  0.20622992    -0.11110
C530        C  0.01550862  0.75768723  0.16024163     0.03560
C531        C  0.48691515  0.76439477  0.13814001    -0.10530
H532        H  0.43901588  0.77424721  0.22774872     0.09150
H533        H  0.03699363  0.74925508  0.22371638     0.06680
H534        H  0.48661976  0.76579452  0.10258987     0.06530
C535        C  0.25305988  0.98842649  0.84464780     0.03570
C536        C  0.24277029  0.51529544  0.86819377    -0.12580
C537        C  0.23693914  0.54419562  0.84642116     0.01070
C538        C  0.24039088  0.54544944  0.80037336    -0.11110
C539        C  0.25072579  0.51884319  0.77679745     0.03560
C540        C  0.25771744  0.99089853  0.79905637    -0.10530
H541        H  0.23830610  0.51350528  0.90316193     0.09150
H542        H  0.23532919  0.56712644  0.78279088     0.06680
H543        H  0.26559981  0.97054740  0.78025839     0.06530
C544        C  0.45873143  0.76977173  0.83732781     0.03570
C545        C  0.45913106  0.76819933  0.79113351    -0.12580
C546        C  0.48717417  0.76135120  0.76878734     0.01070
C547        C  0.01509454  0.75644474  0.79230069    -0.11110
C548        C  0.01574283  0.75962492  0.83826813     0.03560
C549        C  0.48727571  0.76600278  0.86084574    -0.10530
H550        H  0.43751911  0.77194862  0.77254006     0.09150
H551        H  0.03653938  0.75055176  0.77444436     0.06680
H552        H  0.48725644  0.76778943  0.89639865     0.06530
C553        C  0.23995860  0.61109914  0.92999762    -0.20870
C554        C  0.21757592  0.63235671  0.91317303    -0.08910
C555        C  0.19942884  0.62349199  0.87642180     0.29950
C556        C  0.20472770  0.59414678  0.85581722    -0.20870
C557        C  0.22822358  0.57331047  0.87157624    -0.08930
C558        C  0.24523888  0.58188664  0.90968360     0.29950
F559        F  0.26877591  0.56321027  0.92540119    -0.19450
H560        H  0.25463405  0.61790962  0.95776376     0.18320
H561        H  0.19113501  0.58810602  0.82672326     0.18320
F562        F  0.17814168  0.64393202  0.85889273    -0.19440
C563        C  0.27229421  0.92255615  0.92655299    -0.20870
C564        C  0.25960078  0.89602804  0.90460737    -0.08910
C565        C  0.24618162  0.90010649  0.86263032     0.29950
C566        C  0.24429632  0.93005335  0.84393964    -0.20870
C567        C  0.25617888  0.95686159  0.86598678    -0.08930
C568        C  0.27058068  0.95280569  0.90748794     0.29950
F569        F  0.28310507  0.97790953  0.92947560    -0.19450
H570        H  0.28255916  0.92003630  0.95902095     0.18320
H571        H  0.23276414  0.93227708  0.81226256     0.18320
F572        F  0.23444263  0.87506492  0.83961686    -0.19440
C573        C  0.37154405  0.76160971  0.13498673    -0.20870
C574        C  0.36836745  0.78023346  0.09700587    -0.08910
C575        C  0.39522114  0.79643410  0.08101986     0.29950
C576        C  0.42465776  0.79322704  0.10233875    -0.20870
C577        C  0.42770239  0.77387151  0.13977160    -0.08930
C578        C  0.40065579  0.75808482  0.15571289     0.29950
F579        F  0.40245308  0.73788080  0.19026812    -0.19450
H580        H  0.35144725  0.74880498  0.14833684     0.18320
H581        H  0.44508281  0.80574539  0.08948548     0.18320
F582        F  0.39338322  0.81431763  0.04412427    -0.19440
C583        C  0.08064783  0.73520266  0.07894985    -0.20870
C584        C  0.10678210  0.75138726  0.09723248    -0.08910
C585        C  0.10236176  0.76913791  0.13603456     0.29950
C586        C  0.07255709  0.77137461  0.15511081    -0.20870
C587        C  0.04633316  0.75551590  0.13695778    -0.08930
C588        C  0.05055705  0.73726126  0.09858635     0.29950
F589        F  0.02590193  0.72101813  0.08061978    -0.19450
H590        H  0.08337380  0.72146715  0.04908045     0.18320
H591        H  0.06998498  0.78579074  0.18442534     0.18320
F592        F  0.12688488  0.78443648  0.15594547    -0.19440
C593        C  0.37358085  0.75579116  0.86948833    -0.20870
C594        C  0.36848372  0.77850880  0.90273754    -0.08910
C595        C  0.39364561  0.79904098  0.91416517     0.29950
C596        C  0.42323731  0.79618047  0.89318215    -0.20870
C597        C  0.42796468  0.77314160  0.86032658    -0.08930
C598        C  0.40278259  0.75298676  0.84881804     0.29950
F599        F  0.40664946  0.72974516  0.81833455    -0.19450
H600        H  0.35497337  0.73953312  0.85955040     0.18320
H601        H  0.44238715  0.81204018  0.90234394     0.18320
F602        F  0.38995114  0.82138465  0.94588748    -0.19440
C603        C  0.10287069  0.76915374  0.86425015    -0.20870
C604        C  0.10638740  0.75140942  0.90296944    -0.08910
C605        C  0.07949900  0.73633873  0.92088827     0.29950
C606        C  0.04982745  0.73922846  0.90020172    -0.20870
C607        C  0.04659390  0.75717465  0.86153998    -0.08930
C608        C  0.07349578  0.77236558  0.84411772     0.29950
F609        F  0.07133696  0.79126596  0.80818950    -0.19450
H610        H  0.12294354  0.78129207  0.84969248     0.18320
H611        H  0.02943684  0.72731748  0.91422329     0.18320
F612        F  0.08159198  0.71977183  0.95892449    -0.19440
C613        C  0.24042604  0.61285726  0.07285684    -0.20870
C614        C  0.21841798  0.63427407  0.09027000    -0.08910
C615        C  0.20146660  0.62606745  0.12827308     0.29950
C616        C  0.20699002  0.59683831  0.14882163    -0.20870
C617        C  0.22975605  0.57558861  0.13200434    -0.08930
C618        C  0.24620120  0.58393639  0.09335536     0.29950
F619        F  0.26946456  0.56520360  0.07686385    -0.19450
H620        H  0.25443407  0.61931858  0.04436177     0.18320
H621        H  0.19387277  0.59106039  0.17834792     0.18320
F622        F  0.18093348  0.64691153  0.14672049    -0.19440
C623        C  0.27950895  0.93875352  0.13486301    -0.20870
C624        C  0.25370112  0.95907907  0.12700621    -0.08910
C625        C  0.23027482  0.94974269  0.09662057     0.29950
C626        C  0.23208115  0.92029180  0.07593878    -0.20870
C627        C  0.25731365  0.89967250  0.08467115    -0.08930
C628        C  0.28144426  0.90928159  0.11365625     0.29950
F629        F  0.30568672  0.88945742  0.12351445    -0.19450
H630        H  0.29783008  0.94547392  0.15811279     0.18320
H631        H  0.21313140  0.91308817  0.05393135     0.18320
F632        F  0.20455869  0.96817790  0.08891971    -0.19440
C633        C  0.03673245  0.86503316  0.61799339    -0.20870
C634        C  0.01514733  0.87478667  0.58574602    -0.08910
C635        C  0.49058908  0.85426282  0.57260254     0.29950
C636        C  0.48688044  0.82489452  0.59269339    -0.20870
C637        C  0.50723261  0.81573290  0.62677241    -0.08930
C638        C  0.03270295  0.83569311  0.63871935     0.29950
F639        F  0.05322075  0.82706514  0.67091732    -0.19450
H640        H  0.05565965  0.88071396  0.62855519     0.18320
H641        H  0.46712066  0.80992337  0.58308955     0.18320
F642        F  0.46947446  0.86318209  0.54129297    -0.19440
C643        C  0.45610523  0.68330627  0.62476638    -0.20870
C644        C  0.48492658  0.69975020  0.62947622    -0.08910
C645        C  0.01293340  0.68643917  0.61311735     0.29950
C646        C  0.01222348  0.65689888  0.59278898    -0.20870
C647        C  0.48354639  0.64013393  0.58804499    -0.08930
C648        C  0.45529476  0.65371140  0.60372112     0.29950
F649        F  0.42731775  0.63789594  0.60034633    -0.19450
H650        H  0.43436227  0.69336354  0.63753119     0.18320
H651        H  0.03430174  0.64696720  0.58092484     0.18320
F652        F  0.04115066  0.70165248  0.61804764    -0.19440
C653        C  0.48364635  0.82711861  0.39902008    -0.20870
C654        C  0.50793744  0.81494721  0.37277639    -0.08910
C655        C  0.03655948  0.83187325  0.36839968     0.29950
C656        C  0.04020932  0.86141625  0.38902219    -0.20870
C657        C  0.01502353  0.87435427  0.41314902    -0.08930
C658        C  0.48697195  0.85665589  0.41876831     0.29950
F659        F  0.46232691  0.86842111  0.44240280    -0.19450
H660        H  0.46149427  0.81429115  0.40261220     0.18320
H661        H  0.06190033  0.87480087  0.38436274     0.18320
F662        F  0.06052813  0.82011533  0.34352246    -0.19440
C663        C  0.45704682  0.65234094  0.39204663    -0.20870
C664        C  0.48509171  0.63988409  0.40982966    -0.08910
C665        C  0.01328327  0.65780861  0.40776894     0.29950
C666        C  0.01345631  0.68734889  0.38774458    -0.20870
C667        C  0.48577986  0.69939512  0.36885145    -0.08930
C668        C  0.45744254  0.68185232  0.37110931     0.29950
F669        F  0.43032202  0.69329799  0.35320687    -0.19450
H670        H  0.43517586  0.63883606  0.39318759     0.18320
H671        H  0.03544516  0.70066560  0.38618608     0.18320
F672        F  0.04075124  0.64682647  0.42530263    -0.19440
C673        C  0.13441732  0.51582577  0.63249756    -0.20710
C674        C  0.13026750  0.99334437  0.59855785    -0.08910
C675        C  0.15676200  0.97544087  0.58522151     0.29950
C676        C  0.18660502  0.98069306  0.60499697    -0.20870
C677        C  0.19038869  0.50378232  0.63820722    -0.08930
C678        C  0.16388189  0.52135893  0.65141847     0.29950
F679        F  0.16659037  0.54491467  0.68172082    -0.19450
H680        H  0.11485429  0.53022390  0.64392981     0.18320
H681        H  0.20673070  0.96672470  0.59446998     0.18320
F682        F  0.15413408  0.95362181  0.55256578    -0.19440
C683        C  0.36130686  0.54689117  0.62244791    -0.20870
C684        C  0.36726534  0.52582369  0.58779897    -0.08910
C685        C  0.34345373  0.50460934  0.57446978     0.29950
C686        C  0.31444262  0.50363567  0.59663244    -0.20870
C687        C  0.30858974  0.52379055  0.63264525    -0.08930
C688        C  0.33223486  0.54599213  0.64477561     0.29950
F689        F  0.32739209  0.56682571  0.67815858    -0.19450
H690        H  0.37954592  0.56335015  0.63309188     0.18320
H691        H  0.29698746  0.48621482  0.58652091     0.18320
F692        F  0.34856151  0.48438145  0.54043344    -0.19440
C693        C  0.17806046  0.97007351  0.36984270    -0.20870
C694        C  0.19226532  0.50010377  0.36563412    -0.08910
C695        C  0.17771270  0.52646791  0.38469950     0.29950
C696        C  0.14886159  0.52314733  0.40635759    -0.20870
C697        C  0.13380224  0.99345352  0.40965404    -0.08930
C698        C  0.14901440  0.96663704  0.39216046     0.29950
F699        F  0.13521729  0.93763756  0.39476836    -0.19450
H700        H  0.18926136  0.94949053  0.35537482     0.18320
H701        H  0.13789707  0.54415062  0.42000108     0.18320
F702        F  0.19097630  0.55568251  0.38106909    -0.19440
C703        C  0.34689168  0.49984866  0.41743790    -0.20870
C704        C  0.36840320  0.52400504  0.40697435    -0.08910
C705        C  0.36001293  0.54676641  0.37555041     0.29950
C706        C  0.33055757  0.54475065  0.35416480    -0.20870
C707        C  0.30906670  0.52021291  0.36424382    -0.08930
C708        C  0.31747413  0.49796922  0.39659928     0.29950
F709        F  0.29796653  0.47339757  0.40658939    -0.19450
H710        H  0.35323791  0.48192238  0.44127432     0.18320
H711        H  0.32462527  0.56218105  0.32946967     0.18320
F712        F  0.38084493  0.56986745  0.36404439    -0.19440
O713        O  0.91603177  0.49716723  0.41851969    -0.74860
O714        O  0.91027530  0.04612960  0.44959412    -0.53760
C715        C  0.90041828  0.02271986  0.42599834     0.78870
O716        O  0.98975734  0.42327994  0.57794519    -0.59460
O717        O  0.53863247  0.41734504  0.54626731    -0.52490
C718        C  0.51503359  0.40743583  0.56945216     0.70890
O719        O  0.91446035  0.49781143  0.57701374    -0.74010
O720        O  0.90936039  0.04627338  0.54450524    -0.54580
C721        C  0.89915035  0.02339704  0.56859535     0.76890
O722        O  0.99111561  0.42362180  0.41885105    -0.59160
O723        O  0.53888823  0.41684939  0.45325180    -0.52280
C724        C  0.51566723  0.40722681  0.42893597     0.73480
Zr725      Zr  0.96823074  0.47512439  0.43277789     2.54710
O726        O  0.92792421  0.43428646  0.42324894    -0.79720
O727        O  0.97400850  0.48016640  0.35345721    -0.93140
Zr728      Zr  0.96639088  0.47469485  0.56289871     2.64680
O729        O  0.92443304  0.43495523  0.56657105    -0.98100
O730        O  0.97028490  0.47813185  0.64266789    -0.80160
O731        O  0.94514999  0.49608291  0.49740216    -0.83510
O732        O  0.98904015  0.45340911  0.49825609    -2.18220
O733        O  0.58443551  0.01696669  0.41889253    -0.66900
O734        O  0.59230467  0.46968065  0.45313358    -0.51470
C735        C  0.60134258  0.49267500  0.42815629     0.71860
O736        O  0.50965994  0.09203478  0.57779340    -0.59810
O737        O  0.96146319  0.09811669  0.54482244    -0.51790
C738        C  0.98457868  0.10798576  0.56906575     0.73670
O739        O  0.58109318  0.01625659  0.58423667    -0.71210
O740        O  0.59170442  0.47037389  0.54790830    -0.49880
C741        C  0.59901770  0.49261635  0.57546935     0.75050
O742        O  0.51112860  0.09179157  0.42036955    -0.66540
O743        O  0.96240577  0.09801214  0.45182411    -0.53730
C744        C  0.98594828  0.10778861  0.42848071     0.73430
Zr745      Zr  0.53334947  0.04017183  0.43451692     2.77540
O746        O  0.57340710  0.08165066  0.42827912    -0.97290
O747        O  0.52860424  0.03576302  0.35493657    -0.78110
Zr748      Zr  0.53139651  0.04007257  0.56466911     2.70070
O749        O  0.57335574  0.07937485  0.57277673    -0.79350
O750        O  0.52431382  0.03710320  0.64398047    -0.98440
Zr751      Zr  0.95602563  0.05143464  0.49796966     2.21500
Zr752      Zr  0.54504281  0.46386711  0.49966546     2.11130
O753        O  0.55494415  0.01951863  0.50018130    -2.47130
O754        O  0.51137289  0.06219649  0.49918281    -0.79150
O755        O  0.52373546  0.48492492  0.43269128    -0.71340
O756        O  0.97630674  0.02987633  0.56494835    -2.32300
O757        O  0.97815750  0.03020663  0.43172998    -2.28510
O758        O  0.52184137  0.48484193  0.56559875    -0.73100
H759        H  0.98461982  0.43099770  0.49812249     0.78890
H760        H  0.96644000  0.03952178  0.59031750     0.79980
H761        H  0.57739222  0.02407843  0.50099327     0.82210
H762        H  0.96882521  0.03983824  0.40603131     0.79810
H763        H  0.95742748  0.49684172  0.65072191     0.42850
H764        H  0.53035351  0.01516466  0.65161302     0.41820
H765        H  0.57785189  0.08633426  0.54233290     0.41500
H766        H  0.58961382  0.07643595  0.45068302     0.39430
H767        H  0.53703676  0.01449383  0.34789291     0.42560
H768        H  0.96008452  0.49806651  0.34539912     0.37350
H769        H  0.92026984  0.42999254  0.45344253     0.43460
H770        H  0.92999772  0.41909469  0.54382401     0.39880
H771        H  0.58395193  0.07788289  0.39965514     0.44800
H772        H  0.96310364  0.46124880  0.34136716     0.43520
H773        H  0.92771543  0.42397151  0.59492454     0.43660
H774        H  0.54165920  0.05036266  0.65613737     0.44010
C775        C  0.98746026  0.23002846  0.34618905     0.03570
C776        C  0.99624630  0.25725454  0.36974763    -0.12580
C777        C  0.00173103  0.28579896  0.34771643     0.01070
C778        C  0.99843140  0.28709947  0.30194578    -0.11110
C779        C  0.98925550  0.26008084  0.27834908     0.03560
C780        C  0.98366916  0.23156127  0.30045138    -0.10530
H781        H  0.99902718  0.25617246  0.40516781     0.09150
H782        H  0.00260968  0.30917642  0.28476462     0.06680
H783        H  0.97765360  0.21039282  0.28194860     0.06530
C784        C  0.72190240  0.00468360  0.34074469     0.03570
C785        C  0.72114479  0.00691972  0.29479557    -0.12580
C786        C  0.74872701  0.01467346  0.27136826     0.01070
C787        C  0.77737162  0.01954043  0.29404638    -0.11110
C788        C  0.77849427  0.01702317  0.34019062     0.03560
C789        C  0.75039729  0.01020385  0.36326037    -0.10530
H790        H  0.69900085  0.00320050  0.27734179     0.09150
H791        H  0.79882144  0.02452372  0.27566633     0.06680
H792        H  0.75055549  0.00939885  0.39888591     0.06530
C793        C  0.72136326  0.00939285  0.66038360     0.03570
C794        C  0.74949815  0.01387719  0.63633533    -0.12580
C795        C  0.77846417  0.02045910  0.65805224     0.01070
C796        C  0.77871155  0.02237208  0.70437091    -0.11110
C797        C  0.75063539  0.01856714  0.72837344     0.03560
C798        C  0.72235674  0.01163653  0.70641765    -0.10530
H799        H  0.74864847  0.01287128  0.60075335     0.09150
H800        H  0.80076012  0.02594582  0.72202133     0.06680
H801        H  0.70103349  0.00751205  0.72551447     0.06530
C802        C  0.98639911  0.23042920  0.65239878     0.03570
C803        C  0.99490326  0.25779657  0.62914324    -0.12580
C804        C  0.00004952  0.28649466  0.65144818     0.01070
C805        C  0.99664963  0.28756411  0.69729523    -0.11110
C806        C  0.98797957  0.26035428  0.72059989     0.03560
C807        C  0.98267275  0.23183045  0.69815157    -0.10530
H808        H  0.99799565  0.25661149  0.59378030     0.09150
H809        H  0.00053712  0.30959608  0.71490565     0.06680
H810        H  0.97697437  0.21055029  0.71639636     0.06530
C811        C  0.75013432  0.48892887  0.15242273     0.03570
C812        C  0.75312837  0.48868757  0.19836416    -0.12580
C813        C  0.74768350  0.01620182  0.22296625     0.01070
C814        C  0.73978092  0.04450063  0.20148122    -0.11110
C815        C  0.73712456  0.04540214  0.15528873     0.03560
C816        C  0.74203070  0.01729962  0.13122223    -0.10530
H817        H  0.75862131  0.46680247  0.21522557     0.09150
H818        H  0.73599807  0.06575954  0.22077836     0.06680
H819        H  0.73932074  0.01736874  0.09580920     0.06530
O820        O  0.73162430  0.34894935  0.91735571    -0.74860
O821        O  0.77872544  0.35571412  0.95325455    -0.53760
C822        C  0.75681585  0.36487753  0.92655500     0.78870
O823        O  0.65539908  0.27653482  0.08315113    -0.59460
O824        O  0.64535580  0.22998826  0.04760351    -0.52490
C825        C  0.63788346  0.25232163  0.07461802     0.70890
O826        O  0.72928691  0.35245984  0.07483632    -0.74010
O827        O  0.77912750  0.35577361  0.04566607    -0.54580
C828        C  0.75549745  0.36712880  0.06741100     0.76890
O829        O  0.65538726  0.27584413  0.91592095    -0.59160
O830        O  0.64503487  0.23012692  0.95300509    -0.52280
C831        C  0.63759780  0.25208445  0.92547731     0.73480
Zr832      Zr  0.70613815  0.29901887  0.93454544     2.54710
O833        O  0.66637977  0.34063004  0.93212090    -0.79720
O834        O  0.70920465  0.29575237  0.85469327    -0.93140
Zr835      Zr  0.70592155  0.30041287  0.06414317     2.64680
O836        O  0.66595645  0.34177991  0.06987981    -0.98100
O837        O  0.71199646  0.29844211  0.14373453    -0.80160
O838        O  0.72841156  0.32097536  0.99903433    -0.83510
O839        O  0.68292892  0.27906732  0.99958133    -2.18220
O840        O  0.74383173  0.18071634  0.91981426    -0.66900
O841        O  0.69585189  0.17555993  0.95413504    -0.51470
C842        C  0.71849646  0.16522334  0.92946759     0.71860
O843        O  0.81974433  0.25559355  0.08228051    -0.59810
O844        O  0.83000264  0.30183375  0.04661664    -0.51790
C845        C  0.83747270  0.27954539  0.07356447     0.73670
O846        O  0.74414113  0.18265975  0.08290999    -0.71210
O847        O  0.69649068  0.17644221  0.04780950    -0.49880
C848        C  0.71900279  0.16683131  0.07327634     0.75050
O849        O  0.81970474  0.25416449  0.91795514    -0.66540
O850        O  0.82975653  0.30122792  0.95195152    -0.53730
C851        C  0.83737844  0.27835296  0.92584188     0.73430
Zr852      Zr  0.76853077  0.23165711  0.93532558     2.77540
O853        O  0.80946478  0.19124549  0.92984316    -0.97290
O854        O  0.76327384  0.23544156  0.85577372    -0.78110
Zr855      Zr  0.76837235  0.23319803  0.06557158     2.70070
O856        O  0.80803442  0.19182373  0.07295577    -0.79350
O857        O  0.76308720  0.23904548  0.14488528    -0.98440
Zr858      Zr  0.78352964  0.30863928  0.99944824     2.21500
Zr859      Zr  0.69146425  0.22305164  0.00027046     2.11130
O860        O  0.74674273  0.21100777  0.00072903    -2.47130
O861        O  0.79162690  0.25277490  0.00020924    -0.79150
O862        O  0.71372017  0.24344212  0.93363559    -0.71340
O863        O  0.76076408  0.28866533  0.06607413    -2.32300
O864        O  0.76092371  0.28711975  0.93340982    -2.28510
O865        O  0.71353509  0.24485771  0.06641753    -0.73100
H866        H  0.66056796  0.28394439  0.99946843     0.78890
H867        H  0.77060549  0.29819485  0.09161354     0.79980
H868        H  0.75038124  0.18847110  0.00112031     0.82210
H869        H  0.77083179  0.29611516  0.90765584     0.79810
H870        H  0.72818177  0.31476017  0.15061791     0.42850
H871        H  0.74147276  0.23114992  0.15149293     0.41820
H872        H  0.81170885  0.18439299  0.04246416     0.41500
H873        H  0.80316599  0.17474193  0.95121553     0.39430
H874        H  0.74084239  0.22989075  0.84977188     0.42560
H875        H  0.73044176  0.30422770  0.84721391     0.37350
H876        H  0.66645090  0.34970463  0.96219257     0.43460
H877        H  0.64886584  0.33526672  0.04936919     0.39880
H878        H  0.80625473  0.18132292  0.90061987     0.44800
H879        H  0.69423721  0.31210317  0.84421921     0.43520
H880        H  0.65666176  0.33925204  0.09956697     0.43660
H881        H  0.77740511  0.22277286  0.15717241     0.44010
C882        C  0.95874388  0.26945958  0.16219996     0.03570
C883        C  0.95994615  0.26890979  0.20846866    -0.12580
C884        C  0.98797307  0.26115988  0.23023279     0.01070
C885        C  0.51538879  0.25517148  0.20622992    -0.11110
C886        C  0.51550861  0.25768723  0.16024162     0.03560
C887        C  0.98691515  0.26439477  0.13814001    -0.10530
H888        H  0.93901588  0.27424721  0.22774872     0.09150
H889        H  0.53699363  0.24925508  0.22371638     0.06680
H890        H  0.98661975  0.26579451  0.10258987     0.06530
C891        C  0.75305987  0.48842649  0.84464780     0.03570
C892        C  0.74277030  0.01529544  0.86819377    -0.12580
C893        C  0.73693915  0.04419562  0.84642116     0.01070
C894        C  0.74039089  0.04544944  0.80037335    -0.11110
C895        C  0.75072580  0.01884319  0.77679745     0.03560
C896        C  0.75771742  0.49089854  0.79905637    -0.10530
H897        H  0.73830610  0.01350528  0.90316193     0.09150
H898        H  0.73532919  0.06712644  0.78279088     0.06680
H899        H  0.76559979  0.47054741  0.78025839     0.06530
C900        C  0.95873143  0.26977173  0.83732781     0.03570
C901        C  0.95913105  0.26819933  0.79113351    -0.12580
C902        C  0.98717416  0.26135120  0.76878734     0.01070
C903        C  0.51509453  0.25644474  0.79230069    -0.11110
C904        C  0.51574283  0.25962492  0.83826813     0.03560
C905        C  0.98727571  0.26600277  0.86084574    -0.10530
H906        H  0.93751910  0.27194861  0.77254006     0.09150
H907        H  0.53653938  0.25055175  0.77444436     0.06680
H908        H  0.98725643  0.26778942  0.89639865     0.06530
C909        C  0.73995859  0.11109913  0.92999763    -0.20870
C910        C  0.71757592  0.13235671  0.91317302    -0.08910
C911        C  0.69942885  0.12349199  0.87642179     0.29950
C912        C  0.70472770  0.09414678  0.85581721    -0.20870
C913        C  0.72822359  0.07331047  0.87157624    -0.08930
C914        C  0.74523887  0.08188664  0.90968360     0.29950
F915        F  0.76877590  0.06321027  0.92540120    -0.19450
H916        H  0.75463404  0.11790962  0.95776377     0.18320
H917        H  0.69113502  0.08810602  0.82672325     0.18320
F918        F  0.67814169  0.14393203  0.85889271    -0.19440
C919        C  0.77229420  0.42255615  0.92655299    -0.20870
C920        C  0.75960077  0.39602804  0.90460737    -0.08910
C921        C  0.74618162  0.40010648  0.86263031     0.29950
C922        C  0.74429632  0.43005335  0.84393963    -0.20870
C923        C  0.75617886  0.45686159  0.86598678    -0.08930
C924        C  0.77058067  0.45280569  0.90748794     0.29950
F925        F  0.78310505  0.47790953  0.92947560    -0.19450
H926        H  0.78255915  0.42003630  0.95902096     0.18320
H927        H  0.73276413  0.43227708  0.81226256     0.18320
F928        F  0.73444263  0.37506491  0.83961685    -0.19440
C929        C  0.87154405  0.26160972  0.13498673    -0.20870
C930        C  0.86836745  0.28023346  0.09700587    -0.08910
C931        C  0.89522114  0.29643410  0.08101985     0.29950
C932        C  0.92465776  0.29322704  0.10233874    -0.20870
C933        C  0.92770238  0.27387152  0.13977160    -0.08930
C934        C  0.90065579  0.25808482  0.15571289     0.29950
F935        F  0.90245307  0.23788081  0.19026812    -0.19450
H936        H  0.85144725  0.24880498  0.14833683     0.18320
H937        H  0.94508281  0.30574539  0.08948547     0.18320
F938        F  0.89338322  0.31431763  0.04412427    -0.19440
C939        C  0.58064783  0.23520265  0.07894985    -0.20870
C940        C  0.60678210  0.25138726  0.09723248    -0.08910
C941        C  0.60236176  0.26913791  0.13603456     0.29950
C942        C  0.57255708  0.27137461  0.15511081    -0.20870
C943        C  0.54633316  0.25551589  0.13695777    -0.08930
C944        C  0.55055704  0.23726125  0.09858635     0.29950
F945        F  0.52590193  0.22101813  0.08061977    -0.19450
H946        H  0.58337380  0.22146714  0.04908044     0.18320
H947        H  0.56998498  0.28579074  0.18442534     0.18320
F948        F  0.62688488  0.28443648  0.15594546    -0.19440
C949        C  0.87358084  0.25579116  0.86948833    -0.20870
C950        C  0.86848372  0.27850880  0.90273754    -0.08910
C951        C  0.89364561  0.29904098  0.91416517     0.29950
C952        C  0.92323731  0.29618047  0.89318215    -0.20870
C953        C  0.92796468  0.27314160  0.86032658    -0.08930
C954        C  0.90278258  0.25298675  0.84881804     0.29950
F955        F  0.90664946  0.22974516  0.81833455    -0.19450
H956        H  0.85497336  0.23953312  0.85955039     0.18320
H957        H  0.94238715  0.31204017  0.90234394     0.18320
F958        F  0.88995114  0.32138465  0.94588748    -0.19440
C959        C  0.60287069  0.26915374  0.86425016    -0.20870
C960        C  0.60638739  0.25140942  0.90296944    -0.08910
C961        C  0.57949899  0.23633873  0.92088827     0.29950
C962        C  0.54982744  0.23922846  0.90020172    -0.20870
C963        C  0.54659389  0.25717465  0.86153998    -0.08930
C964        C  0.57349578  0.27236558  0.84411772     0.29950
F965        F  0.57133695  0.29126595  0.80818950    -0.19450
H966        H  0.62294353  0.28129207  0.84969249     0.18320
H967        H  0.52943684  0.22731748  0.91422330     0.18320
F968        F  0.58159198  0.21977183  0.95892449    -0.19440
C969        C  0.74042605  0.11285726  0.07285684    -0.20870
C970        C  0.71841798  0.13427407  0.09027000    -0.08910
C971        C  0.70146660  0.12606745  0.12827307     0.29950
C972        C  0.70699002  0.09683831  0.14882162    -0.20870
C973        C  0.72975605  0.07558861  0.13200433    -0.08930
C974        C  0.74620120  0.08393639  0.09335535     0.29950
F975        F  0.76946457  0.06520360  0.07686385    -0.19450
H976        H  0.75443407  0.11931859  0.04436176     0.18320
H977        H  0.69387277  0.09106039  0.17834791     0.18320
F978        F  0.68093348  0.14691153  0.14672048    -0.19440
C979        C  0.77950894  0.43875352  0.13486301    -0.20870
C980        C  0.75370112  0.45907907  0.12700620    -0.08910
C981        C  0.73027481  0.44974269  0.09662057     0.29950
C982        C  0.73208115  0.42029180  0.07593877    -0.20870
C983        C  0.75731365  0.39967250  0.08467114    -0.08930
C984        C  0.78144425  0.40928159  0.11365625     0.29950
F985        F  0.80568671  0.38945742  0.12351445    -0.19450
H986        H  0.79783008  0.44547392  0.15811279     0.18320
H987        H  0.71313140  0.41308817  0.05393134     0.18320
F988        F  0.70455869  0.46817790  0.08891970    -0.19440
C989        C  0.53673244  0.36503317  0.61799340    -0.20870
C990        C  0.51514732  0.37478667  0.58574602    -0.08910
C991        C  0.99058907  0.35426282  0.57260255     0.29950
C992        C  0.98688043  0.32489453  0.59269340    -0.20870
C993        C  0.00723260  0.31573290  0.62677242    -0.08930
C994        C  0.53270294  0.33569311  0.63871936     0.29950
F995        F  0.55322074  0.32706514  0.67091733    -0.19450
H996        H  0.55565964  0.38071397  0.62855520     0.18320
H997        H  0.96712065  0.30992337  0.58308955     0.18320
F998        F  0.96947445  0.36318209  0.54129298    -0.19440
C999        C  0.95610523  0.18330626  0.62476639    -0.20870
C1000       C  0.98492658  0.19975020  0.62947622    -0.08910
C1001       C  0.51293341  0.18643918  0.61311734     0.29950
C1002       C  0.51222348  0.15689888  0.59278896    -0.20870
C1003       C  0.98354639  0.14013393  0.58804498    -0.08930
C1004       C  0.95529476  0.15371139  0.60372113     0.29950
F1005       F  0.92731776  0.13789592  0.60034637    -0.19450
H1006       H  0.93436227  0.19336352  0.63753123     0.18320
H1007       H  0.53430175  0.14696721  0.58092481     0.18320
F1008       F  0.54115066  0.20165249  0.61804761    -0.19440
C1009       C  0.98364635  0.32711861  0.39902008    -0.20870
C1010       C  0.00793743  0.31494721  0.37277639    -0.08910
C1011       C  0.53655947  0.33187325  0.36839968     0.29950
C1012       C  0.54020931  0.36141625  0.38902219    -0.20870
C1013       C  0.51502352  0.37435427  0.41314902    -0.08930
C1014       C  0.98697194  0.35665589  0.41876832     0.29950
F1015       F  0.96232690  0.36842111  0.44240281    -0.19450
H1016       H  0.96149426  0.31429115  0.40261221     0.18320
H1017       H  0.56190032  0.37480087  0.38436275     0.18320
F1018       F  0.56052813  0.32011533  0.34352247    -0.19440
C1019       C  0.95704682  0.15234094  0.39204663    -0.20870
C1020       C  0.98509171  0.13988409  0.40982966    -0.08910
C1021       C  0.51328328  0.15780861  0.40776893     0.29950
C1022       C  0.51345632  0.18734889  0.38774457    -0.20870
C1023       C  0.98577985  0.19939512  0.36885144    -0.08930
C1024       C  0.95744254  0.18185231  0.37110931     0.29950
F1025       F  0.93032202  0.19329799  0.35320686    -0.19450
H1026       H  0.93517586  0.13883606  0.39318758     0.18320
H1027       H  0.53544517  0.20066560  0.38618607     0.18320
F1028       F  0.54075125  0.14682647  0.42530262    -0.19440
C1029       C  0.63441733  0.01582576  0.63249756    -0.20710
C1030       C  0.63026749  0.49334437  0.59855786    -0.08910
C1031       C  0.65676199  0.47544087  0.58522152     0.29950
C1032       C  0.68660502  0.48069306  0.60499698    -0.20870
C1033       C  0.69038870  0.00378231  0.63820723    -0.08930
C1034       C  0.66388190  0.02135892  0.65141848     0.29950
F1035       F  0.66659037  0.04491466  0.68172082    -0.19450
H1036       H  0.61485430  0.03022389  0.64392981     0.18320
H1037       H  0.70673069  0.46672470  0.59447000     0.18320
F1038       F  0.65413407  0.45362180  0.55256580    -0.19440
C1039       C  0.86130686  0.04689117  0.62244790    -0.20870
C1040       C  0.86726534  0.02582369  0.58779897    -0.08910
C1041       C  0.84345374  0.00460932  0.57446979     0.29950
C1042       C  0.81444263  0.00363565  0.59663245    -0.20870
C1043       C  0.80858974  0.02379055  0.63264524    -0.08930
C1044       C  0.83223486  0.04599213  0.64477559     0.29950
F1045       F  0.82739208  0.06682573  0.67815855    -0.19450
H1046       H  0.87954591  0.06335016  0.63309185     0.18320
H1047       H  0.79698747  0.98621480  0.58652093     0.18320
F1048       F  0.84856152  0.98438142  0.54043346    -0.19440
C1049       C  0.67806045  0.47007350  0.36984268    -0.20870
C1050       C  0.69226533  0.00010377  0.36563411    -0.08910
C1051       C  0.67771271  0.02646791  0.38469951     0.29950
C1052       C  0.64886161  0.02314733  0.40635760    -0.20870
C1053       C  0.63380224  0.49345351  0.40965404    -0.08930
C1054       C  0.64901438  0.46663703  0.39216044     0.29950
F1055       F  0.63521727  0.43763755  0.39476832    -0.19450
H1056       H  0.68926134  0.44949053  0.35537478     0.18320
H1057       H  0.63789709  0.04415061  0.42000111     0.18320
F1058       F  0.69097632  0.05568250  0.38106912    -0.19440
C1059       C  0.84689169  0.99984866  0.41743790    -0.20870
C1060       C  0.86840321  0.02400504  0.40697434    -0.08910
C1061       C  0.86001293  0.04676641  0.37555040     0.29950
C1062       C  0.83055758  0.04475064  0.35416478    -0.20870
C1063       C  0.80906671  0.02021290  0.36424381    -0.08930
C1064       C  0.81747414  0.99796921  0.39659928     0.29950
F1065       F  0.79796654  0.97339757  0.40658938    -0.19450
H1066       H  0.85323791  0.98192238  0.44127431     0.18320
H1067       H  0.82462528  0.06218105  0.32946966     0.18320
F1068       F  0.88084495  0.06986744  0.36404438    -0.19440
O1069       O  0.91603178  0.99716723  0.41851969    -0.74860
O1070       O  0.91027529  0.54612960  0.44959412    -0.53760
C1071       C  0.90041827  0.52271986  0.42599833     0.78870
O1072       O  0.98975736  0.92327994  0.57794519    -0.59460
O1073       O  0.53863247  0.91734504  0.54626732    -0.52490
C1074       C  0.51503359  0.90743583  0.56945216     0.70890
O1075       O  0.91446036  0.99781142  0.57701373    -0.74010
O1076       O  0.90936037  0.54627338  0.54450524    -0.54580
C1077       C  0.89915034  0.52339704  0.56859536     0.76890
O1078       O  0.99111562  0.92362180  0.41885104    -0.59160
O1079       O  0.53888824  0.91684939  0.45325181    -0.52280
C1080       C  0.51566724  0.90722681  0.42893598     0.73480
Zr1081     Zr  0.96823075  0.97512439  0.43277789     2.54710
O1082       O  0.92792422  0.93428646  0.42324893    -0.79720
O1083       O  0.97400851  0.98016640  0.35345721    -0.93140
Zr1084     Zr  0.96639090  0.97469484  0.56289871     2.64680
O1085       O  0.92443306  0.93495523  0.56657106    -0.98100
O1086       O  0.97028492  0.97813186  0.64266788    -0.80160
O1087       O  0.94515000  0.99608291  0.49740215    -0.83510
O1088       O  0.98904016  0.95340911  0.49825608    -2.18220
O1089       O  0.58443551  0.51696668  0.41889252    -0.66900
O1090       O  0.59230468  0.96968065  0.45313359    -0.51470
C1091       C  0.60134259  0.99267501  0.42815630     0.71860
O1092       O  0.50965994  0.59203478  0.57779341    -0.59810
O1093       O  0.96146317  0.59811670  0.54482243    -0.51790
C1094       C  0.98457866  0.60798576  0.56906575     0.73670
O1095       O  0.58109316  0.51625657  0.58423668    -0.71210
O1096       O  0.59170442  0.97037389  0.54790831    -0.49880
C1097       C  0.59901771  0.99261636  0.57546935     0.75050
O1098       O  0.51112860  0.59179157  0.42036955    -0.66540
O1099       O  0.96240576  0.59801214  0.45182411    -0.53730
C1100       C  0.98594827  0.60778861  0.42848071     0.73430
Zr1101     Zr  0.53334947  0.54017182  0.43451691     2.77540
O1102       O  0.57340710  0.58165065  0.42827911    -0.97290
O1103       O  0.52860424  0.53576302  0.35493656    -0.78110
Zr1104     Zr  0.53139651  0.54007257  0.56466909     2.70070
O1105       O  0.57335575  0.57937484  0.57277664    -0.79350
O1106       O  0.52431385  0.53710324  0.64398047    -0.98440
Zr1107     Zr  0.95602561  0.55143464  0.49796966     2.21500
Zr1108     Zr  0.54504282  0.96386711  0.49966546     2.11130
O1109       O  0.55494415  0.51951862  0.50018129    -2.47130
O1110       O  0.51137289  0.56219649  0.49918280    -0.79150
O1111       O  0.52373546  0.98492493  0.43269128    -0.71340
O1112       O  0.97630672  0.52987633  0.56494835    -2.32300
O1113       O  0.97815749  0.53020663  0.43172999    -2.28510
O1114       O  0.52184137  0.98484193  0.56559875    -0.73100
H1115       H  0.98461983  0.93099770  0.49812248     0.78890
H1116       H  0.96643998  0.53952178  0.59031750     0.79980
H1117       H  0.57739221  0.52407843  0.50099326     0.82210
H1118       H  0.96882520  0.53983824  0.40603131     0.79810
H1119       H  0.95742750  0.99684172  0.65072190     0.42850
H1120       H  0.53035349  0.51516468  0.65161302     0.41820
H1121       H  0.57785184  0.58633428  0.54233280     0.41500
H1122       H  0.58961382  0.57643594  0.45068301     0.39430
H1123       H  0.53703675  0.51449383  0.34789290     0.42560
H1124       H  0.96008453  0.99806650  0.34539911     0.37350
H1125       H  0.92026985  0.92999253  0.45344252     0.43460
H1126       H  0.92999774  0.91909469  0.54382402     0.39880
H1127       H  0.58395193  0.57788288  0.39965514     0.44800
H1128       H  0.96310366  0.96124880  0.34136716     0.43520
H1129       H  0.92771545  0.92397151  0.59492455     0.43660
H1130       H  0.54165927  0.55036266  0.65613735     0.44010
C1131       C  0.98746025  0.73002846  0.34618905     0.03570
C1132       C  0.99624629  0.75725454  0.36974763    -0.12580
C1133       C  0.00173103  0.78579895  0.34771643     0.01070
C1134       C  0.99843140  0.78709946  0.30194578    -0.11110
C1135       C  0.98925551  0.76008083  0.27834908     0.03560
C1136       C  0.98366916  0.73156127  0.30045138    -0.10530
H1137       H  0.99902717  0.75617246  0.40516781     0.09150
H1138       H  0.00260969  0.80917641  0.28476462     0.06680
H1139       H  0.97765359  0.71039282  0.28194860     0.06530
C1140       C  0.72190239  0.50468360  0.34074467     0.03570
C1141       C  0.72114478  0.50691971  0.29479556    -0.12580
C1142       C  0.74872700  0.51467346  0.27136825     0.01070
C1143       C  0.77737161  0.51954043  0.29404637    -0.11110
C1144       C  0.77849426  0.51702317  0.34019061     0.03560
C1145       C  0.75039728  0.51020385  0.36326035    -0.10530
H1146       H  0.69900084  0.50320049  0.27734178     0.09150
H1147       H  0.79882144  0.52452372  0.27566632     0.06680
H1148       H  0.75055548  0.50939884  0.39888589     0.06530
C1149       C  0.72136325  0.50939286  0.66038361     0.03570
C1150       C  0.74949814  0.51387720  0.63633534    -0.12580
C1151       C  0.77846415  0.52045912  0.65805224     0.01070
C1152       C  0.77871153  0.52237209  0.70437092    -0.11110
C1153       C  0.75063537  0.51856715  0.72837344     0.03560
C1154       C  0.72235672  0.51163654  0.70641766    -0.10530
H1155       H  0.74864845  0.51287130  0.60075336     0.09150
H1156       H  0.80076010  0.52594583  0.72202134     0.06680
H1157       H  0.70103347  0.50751206  0.72551447     0.06530
C1158       C  0.98639910  0.73042921  0.65239878     0.03570
C1159       C  0.99490326  0.75779657  0.62914323    -0.12580
C1160       C  0.00004952  0.78649466  0.65144818     0.01070
C1161       C  0.99664964  0.78756411  0.69729522    -0.11110
C1162       C  0.98797957  0.76035428  0.72059988     0.03560
C1163       C  0.98267275  0.73183046  0.69815157    -0.10530
H1164       H  0.99799565  0.75661149  0.59378030     0.09150
H1165       H  0.00053714  0.80959609  0.71490565     0.06680
H1166       H  0.97697436  0.71055030  0.71639635     0.06530
C1167       C  0.75013433  0.98892887  0.15242274     0.03570
C1168       C  0.75312838  0.98868757  0.19836418    -0.12580
C1169       C  0.74768350  0.51620182  0.22296624     0.01070
C1170       C  0.73978091  0.54450063  0.20148121    -0.11110
C1171       C  0.73712455  0.54540214  0.15528872     0.03560
C1172       C  0.74203069  0.51729962  0.13122222    -0.10530
H1173       H  0.75862132  0.96680247  0.21522558     0.09150
H1174       H  0.73599806  0.56575953  0.22077835     0.06680
H1175       H  0.73932073  0.51736874  0.09580919     0.06530
O1176       O  0.73162431  0.84894935  0.91735572    -0.74860
O1177       O  0.77872546  0.85571412  0.95325455    -0.53760
C1178       C  0.75681586  0.86487753  0.92655501     0.78870
O1179       O  0.65539909  0.77653483  0.08315114    -0.59460
O1180       O  0.64535580  0.72998827  0.04760351    -0.52490
C1181       C  0.63788347  0.75232164  0.07461802     0.70890
O1182       O  0.72928692  0.85245984  0.07483633    -0.74010
O1183       O  0.77912751  0.85577361  0.04566607    -0.54580
C1184       C  0.75549746  0.86712881  0.06741101     0.76890
O1185       O  0.65538726  0.77584414  0.91592096    -0.59160
O1186       O  0.64503487  0.73012692  0.95300510    -0.52280
C1187       C  0.63759780  0.75208446  0.92547732     0.73480
Zr1188     Zr  0.70613815  0.79901887  0.93454545     2.54710
O1189       O  0.66637978  0.84063005  0.93212092    -0.79720
O1190       O  0.70920465  0.79575239  0.85469328    -0.93140
Zr1191     Zr  0.70592156  0.80041288  0.06414318     2.64680
O1192       O  0.66595646  0.84177992  0.06987983    -0.98100
O1193       O  0.71199647  0.79844211  0.14373453    -0.80160
O1194       O  0.72841157  0.82097537  0.99903434    -0.83510
O1195       O  0.68292893  0.77906733  0.99958134    -2.18220
O1196       O  0.74383173  0.68071634  0.91981427    -0.66900
O1197       O  0.69585189  0.67555994  0.95413504    -0.51470
C1198       C  0.71849645  0.66522334  0.92946760     0.71860
O1199       O  0.81974433  0.75559354  0.08228051    -0.59810
O1200       O  0.83000265  0.80183374  0.04661665    -0.51790
C1201       C  0.83747271  0.77954538  0.07356447     0.73670
O1202       O  0.74414113  0.68265975  0.08290999    -0.71210
O1203       O  0.69649067  0.67644221  0.04780951    -0.49880
C1204       C  0.71900279  0.66683131  0.07327634     0.75050
O1205       O  0.81970474  0.75416449  0.91795514    -0.66540
O1206       O  0.82975653  0.80122791  0.95195152    -0.53730
C1207       C  0.83737844  0.77835295  0.92584188     0.73430
Zr1208     Zr  0.76853077  0.73165711  0.93532559     2.77540
O1209       O  0.80946477  0.69124549  0.92984315    -0.97290
O1210       O  0.76327384  0.73544157  0.85577373    -0.78110
Zr1211     Zr  0.76837235  0.73319803  0.06557158     2.70070
O1212       O  0.80803442  0.69182372  0.07295577    -0.79350
O1213       O  0.76308721  0.73904547  0.14488529    -0.98440
Zr1214     Zr  0.78352965  0.80863928  0.99944825     2.21500
Zr1215     Zr  0.69146425  0.72305165  0.00027046     2.11130
O1216       O  0.74674273  0.71100778  0.00072903    -2.47130
O1217       O  0.79162690  0.75277490  0.00020924    -0.79150
O1218       O  0.71372017  0.74344212  0.93363560    -0.71340
O1219       O  0.76076409  0.78866532  0.06607413    -2.32300
O1220       O  0.76092371  0.78711975  0.93340982    -2.28510
O1221       O  0.71353509  0.74485771  0.06641754    -0.73100
H1222       H  0.66056797  0.78394440  0.99946844     0.78890
H1223       H  0.77060550  0.79819484  0.09161355     0.79980
H1224       H  0.75038123  0.68847110  0.00112032     0.82210
H1225       H  0.77083179  0.79611516  0.90765585     0.79810
H1226       H  0.72818177  0.81476016  0.15061792     0.42850
H1227       H  0.74147277  0.73114991  0.15149293     0.41820
H1228       H  0.81170885  0.68439299  0.04246415     0.41500
H1229       H  0.80316599  0.67474193  0.95121553     0.39430
H1230       H  0.74084238  0.72989075  0.84977188     0.42560
H1231       H  0.73044176  0.80422770  0.84721392     0.37350
H1232       H  0.66645092  0.84970464  0.96219260     0.43460
H1233       H  0.64886585  0.83526673  0.04936921     0.39880
H1234       H  0.80625473  0.68132293  0.90061986     0.44800
H1235       H  0.69423722  0.81210319  0.84421922     0.43520
H1236       H  0.65666177  0.83925205  0.09956699     0.43660
H1237       H  0.77740511  0.72277286  0.15717241     0.44010
C1238       C  0.95874388  0.76945958  0.16219996     0.03570
C1239       C  0.95994615  0.76890978  0.20846865    -0.12580
C1240       C  0.98797307  0.76115988  0.23023279     0.01070
C1241       C  0.51538879  0.75517149  0.20622992    -0.11110
C1242       C  0.51550862  0.75768724  0.16024163     0.03560
C1243       C  0.98691515  0.76439476  0.13814001    -0.10530
H1244       H  0.93901588  0.77424721  0.22774872     0.09150
H1245       H  0.53699363  0.74925509  0.22371638     0.06680
H1246       H  0.98661976  0.76579451  0.10258987     0.06530
C1247       C  0.75305989  0.98842648  0.84464780     0.03570
C1248       C  0.74277028  0.51529544  0.86819378    -0.12580
C1249       C  0.73693913  0.54419563  0.84642117     0.01070
C1250       C  0.74039087  0.54544945  0.80037336    -0.11110
C1251       C  0.75072578  0.51884320  0.77679746     0.03560
C1252       C  0.75771744  0.99089853  0.79905637    -0.10530
H1253       H  0.73830608  0.51350528  0.90316193     0.09150
H1254       H  0.73532917  0.56712645  0.78279089     0.06680
H1255       H  0.76559981  0.97054740  0.78025839     0.06530
C1256       C  0.95873143  0.76977172  0.83732781     0.03570
C1257       C  0.95913106  0.76819933  0.79113351    -0.12580
C1258       C  0.98717417  0.76135120  0.76878734     0.01070
C1259       C  0.51509454  0.75644475  0.79230069    -0.11110
C1260       C  0.51574283  0.75962493  0.83826813     0.03560
C1261       C  0.98727571  0.76600277  0.86084573    -0.10530
H1262       H  0.93751911  0.77194861  0.77254006     0.09150
H1263       H  0.53653938  0.75055176  0.77444436     0.06680
H1264       H  0.98725644  0.76778942  0.89639865     0.06530
C1265       C  0.73995859  0.61109914  0.92999762    -0.20870
C1266       C  0.71757591  0.63235672  0.91317303    -0.08910
C1267       C  0.69942883  0.62349199  0.87642181     0.29950
C1268       C  0.70472768  0.59414678  0.85581723    -0.20870
C1269       C  0.72822357  0.57331047  0.87157625    -0.08930
C1270       C  0.74523887  0.58188665  0.90968360     0.29950
F1271       F  0.76877590  0.56321027  0.92540119    -0.19450
H1272       H  0.75463404  0.61790963  0.95776376     0.18320
H1273       H  0.69113499  0.58810602  0.82672328     0.18320
F1274       F  0.67814166  0.64393203  0.85889274    -0.19440
C1275       C  0.77229421  0.92255615  0.92655299    -0.20870
C1276       C  0.75960079  0.89602804  0.90460737    -0.08910
C1277       C  0.74618163  0.90010648  0.86263032     0.29950
C1278       C  0.74429633  0.93005335  0.84393964    -0.20870
C1279       C  0.75617888  0.95686159  0.86598678    -0.08930
C1280       C  0.77058069  0.95280569  0.90748794     0.29950
F1281       F  0.78310507  0.97790953  0.92947560    -0.19450
H1282       H  0.78255916  0.92003630  0.95902096     0.18320
H1283       H  0.73276415  0.93227708  0.81226256     0.18320
F1284       F  0.73444265  0.87506491  0.83961686    -0.19440
C1285       C  0.87154405  0.76160971  0.13498673    -0.20870
C1286       C  0.86836746  0.78023345  0.09700587    -0.08910
C1287       C  0.89522114  0.79643410  0.08101985     0.29950
C1288       C  0.92465776  0.79322704  0.10233874    -0.20870
C1289       C  0.92770239  0.77387151  0.13977160    -0.08930
C1290       C  0.90065580  0.75808481  0.15571289     0.29950
F1291       F  0.90245308  0.73788080  0.19026811    -0.19450
H1292       H  0.85144726  0.74880497  0.14833683     0.18320
H1293       H  0.94508281  0.80574538  0.08948547     0.18320
F1294       F  0.89338322  0.81431762  0.04412427    -0.19440
C1295       C  0.58064783  0.73520266  0.07894985    -0.20870
C1296       C  0.60678210  0.75138727  0.09723248    -0.08910
C1297       C  0.60236176  0.76913793  0.13603456     0.29950
C1298       C  0.57255708  0.77137462  0.15511081    -0.20870
C1299       C  0.54633316  0.75551591  0.13695778    -0.08930
C1300       C  0.55055705  0.73726127  0.09858636     0.29950
F1301       F  0.52590193  0.72101814  0.08061978    -0.19450
H1302       H  0.58337381  0.72146715  0.04908045     0.18320
H1303       H  0.56998498  0.78579076  0.18442534     0.18320
F1304       F  0.62688488  0.78443650  0.15594546    -0.19440
C1305       C  0.87358084  0.75579115  0.86948833    -0.20870
C1306       C  0.86848372  0.77850880  0.90273754    -0.08910
C1307       C  0.89364561  0.79904098  0.91416517     0.29950
C1308       C  0.92323731  0.79618046  0.89318215    -0.20870
C1309       C  0.92796468  0.77314160  0.86032658    -0.08930
C1310       C  0.90278259  0.75298675  0.84881804     0.29950
F1311       F  0.90664946  0.72974515  0.81833455    -0.19450
H1312       H  0.85497336  0.73953312  0.85955039     0.18320
H1313       H  0.94238715  0.81204017  0.90234394     0.18320
F1314       F  0.88995114  0.82138464  0.94588748    -0.19440
C1315       C  0.60287069  0.76915375  0.86425016    -0.20870
C1316       C  0.60638740  0.75140943  0.90296944    -0.08910
C1317       C  0.57949899  0.73633874  0.92088828     0.29950
C1318       C  0.54982745  0.73922847  0.90020173    -0.20870
C1319       C  0.54659390  0.75717466  0.86153998    -0.08930
C1320       C  0.57349579  0.77236558  0.84411772     0.29950
F1321       F  0.57133696  0.79126596  0.80818950    -0.19450
H1322       H  0.62294354  0.78129207  0.84969249     0.18320
H1323       H  0.52943684  0.72731749  0.91422330     0.18320
F1324       F  0.58159198  0.71977184  0.95892450    -0.19440
C1325       C  0.74042604  0.61285726  0.07285683    -0.20870
C1326       C  0.71841798  0.63427407  0.09027000    -0.08910
C1327       C  0.70146659  0.62606745  0.12827307     0.29950
C1328       C  0.70699001  0.59683831  0.14882162    -0.20870
C1329       C  0.72975604  0.57558861  0.13200432    -0.08930
C1330       C  0.74620119  0.58393639  0.09335534     0.29950
F1331       F  0.76946456  0.56520360  0.07686384    -0.19450
H1332       H  0.75443407  0.61931859  0.04436176     0.18320
H1333       H  0.69387276  0.59106039  0.17834790     0.18320
F1334       F  0.68093347  0.64691153  0.14672048    -0.19440
C1335       C  0.77950895  0.93875352  0.13486302    -0.20870
C1336       C  0.75370113  0.95907907  0.12700622    -0.08910
C1337       C  0.73027483  0.94974269  0.09662057     0.29950
C1338       C  0.73208116  0.92029180  0.07593878    -0.20870
C1339       C  0.75731366  0.89967250  0.08467115    -0.08930
C1340       C  0.78144426  0.90928159  0.11365627     0.29950
F1341       F  0.80568672  0.88945742  0.12351447    -0.19450
H1342       H  0.79783009  0.94547392  0.15811280     0.18320
H1343       H  0.71313142  0.91308817  0.05393134     0.18320
F1344       F  0.70455871  0.96817791  0.08891971    -0.19440
C1345       C  0.53673245  0.86503316  0.61799338    -0.20870
C1346       C  0.51514732  0.87478667  0.58574602    -0.08910
C1347       C  0.99058909  0.85426282  0.57260254     0.29950
C1348       C  0.98688045  0.82489453  0.59269339    -0.20870
C1349       C  0.00723261  0.81573290  0.62677241    -0.08930
C1350       C  0.53270295  0.83569311  0.63871934     0.29950
F1351       F  0.55322075  0.82706513  0.67091731    -0.19450
H1352       H  0.55565965  0.88071396  0.62855518     0.18320
H1353       H  0.96712067  0.80992337  0.58308954     0.18320
F1354       F  0.96947448  0.86318209  0.54129296    -0.19440
C1355       C  0.95610521  0.68330628  0.62476638    -0.20870
C1356       C  0.98492657  0.69975021  0.62947621    -0.08910
C1357       C  0.51293342  0.68643916  0.61311737     0.29950
C1358       C  0.51222349  0.65689887  0.59278900    -0.20870
C1359       C  0.98354638  0.64013393  0.58804498    -0.08930
C1360       C  0.95529474  0.65371140  0.60372112     0.29950
F1361       F  0.92731774  0.63789594  0.60034633    -0.19450
H1362       H  0.93436226  0.69336354  0.63753120     0.18320
H1363       H  0.53430176  0.64696719  0.58092487     0.18320
F1364       F  0.54115067  0.70165247  0.61804767    -0.19440
C1365       C  0.98364635  0.82711861  0.39902008    -0.20870
C1366       C  0.00793743  0.81494720  0.37277639    -0.08910
C1367       C  0.53655948  0.83187326  0.36839969     0.29950
C1368       C  0.54020932  0.86141625  0.38902219    -0.20870
C1369       C  0.51502353  0.87435427  0.41314902    -0.08930
C1370       C  0.98697195  0.85665589  0.41876831     0.29950
F1371       F  0.96232690  0.86842111  0.44240281    -0.19450
H1372       H  0.96149426  0.81429115  0.40261221     0.18320
H1373       H  0.56190034  0.87480088  0.38436275     0.18320
F1374       F  0.56052814  0.82011533  0.34352247    -0.19440
C1375       C  0.95704681  0.65234094  0.39204663    -0.20870
C1376       C  0.98509170  0.63988409  0.40982966    -0.08910
C1377       C  0.51328329  0.65780861  0.40776893     0.29950
C1378       C  0.51345633  0.68734889  0.38774457    -0.20870
C1379       C  0.98577984  0.69939512  0.36885144    -0.08930
C1380       C  0.95744252  0.68185231  0.37110931     0.29950
F1381       F  0.93032200  0.69329799  0.35320686    -0.19450
H1382       H  0.93517584  0.63883606  0.39318758     0.18320
H1383       H  0.53544518  0.70066559  0.38618607     0.18320
F1384       F  0.54075125  0.64682647  0.42530262    -0.19440
C1385       C  0.63441731  0.51582576  0.63249757    -0.20710
C1386       C  0.63026750  0.99334438  0.59855785    -0.08910
C1387       C  0.65676200  0.97544088  0.58522151     0.29950
C1388       C  0.68660503  0.98069306  0.60499697    -0.20870
C1389       C  0.69038868  0.50378232  0.63820723    -0.08930
C1390       C  0.66388188  0.52135892  0.65141848     0.29950
F1391       F  0.66659036  0.54491466  0.68172082    -0.19450
H1392       H  0.61485428  0.53022388  0.64392982     0.18320
H1393       H  0.70673070  0.96672469  0.59446998     0.18320
F1394       F  0.65413408  0.95362181  0.55256578    -0.19440
C1395       C  0.86130685  0.54689118  0.62244791    -0.20870
C1396       C  0.86726533  0.52582369  0.58779897    -0.08910
C1397       C  0.84345372  0.50460934  0.57446978     0.29950
C1398       C  0.81444261  0.50363567  0.59663245    -0.20870
C1399       C  0.80858973  0.52379056  0.63264525    -0.08930
C1400       C  0.83223485  0.54599214  0.64477561     0.29950
F1401       F  0.82739208  0.56682572  0.67815858    -0.19450
H1402       H  0.87954591  0.56335015  0.63309188     0.18320
H1403       H  0.79698745  0.48621483  0.58652092     0.18320
F1404       F  0.84856150  0.48438145  0.54043344    -0.19440
C1405       C  0.67806046  0.97007351  0.36984271    -0.20870
C1406       C  0.69226532  0.50010376  0.36563410    -0.08910
C1407       C  0.67771271  0.52646790  0.38469951     0.29950
C1408       C  0.64886160  0.52314732  0.40635760    -0.20870
C1409       C  0.63380224  0.99345352  0.40965405    -0.08930
C1410       C  0.64901439  0.96663704  0.39216047     0.29950
F1411       F  0.63521729  0.93763756  0.39476836    -0.19450
H1412       H  0.68926136  0.94949053  0.35537482     0.18320
H1413       H  0.63789709  0.54415060  0.42000112     0.18320
F1414       F  0.69097632  0.55568249  0.38106913    -0.19440
C1415       C  0.84689168  0.49984866  0.41743789    -0.20870
C1416       C  0.86840320  0.52400503  0.40697434    -0.08910
C1417       C  0.86001292  0.54676641  0.37555039     0.29950
C1418       C  0.83055757  0.54475064  0.35416478    -0.20870
C1419       C  0.80906670  0.52021290  0.36424380    -0.08930
C1420       C  0.81747413  0.49796921  0.39659926     0.29950
F1421       F  0.79796653  0.47339756  0.40658937    -0.19450
H1422       H  0.85323790  0.48192237  0.44127430     0.18320
H1423       H  0.82462527  0.56218105  0.32946965     0.18320
F1424       F  0.88084493  0.56986744  0.36404438    -0.19440
loop_ 
_geom_bond_atom_site_label_1 
_geom_bond_atom_site_label_2 
_geom_bond_distance 
_geom_bond_site_symmetry_2 
_ccdc_geom_bond_type 
O1          Zr13   2.431       .  S
O1          C359   1.286       .  A
O2          Zr39   2.434       .  S
O2            C3   1.287       .  A
C3          O357   1.286   1_545  A
C3          C348   1.469       .  S
O4          Zr16   2.432       .  S
O4          C718   1.286       .  A
O5          Zr40   2.441       .  S
O5            C6   1.289       .  A
C6          O716   1.286   1_455  A
C6          C278   1.467       .  S
O7          Zr16   2.438       .  S
O7          C365   1.287       .  A
O8          Zr39   2.434       .  S
O8            C9   1.288       .  A
C9          O363   1.287   1_545  A
C9          C328   1.470       .  S
O10         Zr13   2.419       .  S
O10         C724   1.285       .  A
O11         Zr40   2.446       .  S
O11          C12   1.290       .  A
C12         O722   1.285   1_455  A
C12         C301   1.468       .  S
Zr13         O14   2.434       .  S
Zr13         O15   2.434       .  S
Zr13         O19   2.364       .  S
Zr13         O20   2.364       .  S
Zr13        O755   2.375       .  S
Zr13        O401   2.363       .  S
O14          H57   0.990       .  S
O15          H56   0.990       .  S
O15          H60   0.990       .  S
Zr16         O17   2.437       .  S
Zr16         O18   2.435       .  S
Zr16         O20   2.362       .  S
Zr16         O19   2.366       .  S
Zr16        O400   2.367       .  S
Zr16        O758   2.376       .  S
O17          H58   0.990       .  S
O17          H61   0.990       .  S
O18          H51   0.990       .  S
O19        Zr395   2.381       .  S
O20        Zr752   2.401       .  S
O20          H47   0.964       .  S
O21         Zr33   2.416       .  S
O21         C379   1.283   1_545  A
O22         Zr40   2.456       .  S
O22          C23   1.292       .  A
C23         O377   1.283       .  A
C23         C341   1.480       .  S
O24         Zr36   2.414       .  S
O24         C738   1.284   1_455  A
O25         Zr39   2.439       .  S
O25          C26   1.289       .  A
C26         O736   1.284       .  A
C26         C291   1.475       .  S
O27         Zr36   2.402       .  S
O27         C385   1.282   1_545  A
O28         Zr40   2.467       .  S
O28          C29   1.293       .  A
C29         O383   1.282       .  A
C29         C318   1.492       .  S
O30         Zr33   2.416       .  S
O30         C744   1.284   1_455  A
O31         Zr39   2.434       .  S
O31          C32   1.288       .  A
C32         O742   1.284       .  A
C32         C308   1.472       .  S
Zr33         O34   2.437       .  S
Zr33         O35   2.434       .  S
Zr33         O41   2.364       .  S
Zr33         O42   2.363       .  S
Zr33        O757   2.364   1_455  S
Zr33        O399   2.368   1_545  S
O34          H54   0.990       .  S
O34          H59   0.990       .  S
O35          H55   0.990       .  S
Zr36         O37   2.434       .  S
Zr36         O38   2.434       .  S
Zr36         O42   2.359       .  S
Zr36         O41   2.362       .  S
Zr36        O402   2.367   1_545  S
Zr36        O756   2.360   1_455  S
O37          H53   0.990       .  S
O38          H52   0.990       .  S
O38          H62   0.990       .  S
Zr39         O44   2.392       .  S
Zr39         O45   2.393       .  S
Zr39        O375   2.381   1_545  S
Zr39        O754   2.376       .  S
Zr40         O43   2.400       .  S
Zr40         O46   2.399       .  S
Zr40        O732   2.401   1_455  S
Zr40        O397   2.386       .  S
O41        Zr396   2.386   1_545  S
O41          H49   0.965       .  S
O42        Zr751   2.376   1_455  S
O43        Zr725   2.375   1_455  S
O43        Zr389   2.368       .  S
O44        Zr372   2.367   1_545  S
O44        Zr748   2.360       .  S
O44          H48   0.966       .  S
O45        Zr369   2.363   1_545  S
O45        Zr745   2.364       .  S
O45          H50   0.966       .  S
O46        Zr728   2.376   1_455  S
O46        Zr392   2.367       .  S
C63         C311   1.470       .  S
C63          C64   1.402       .  A
C63          C68   1.401       .  A
C64          C65   1.400       .  A
C64          H69   1.084       .  S
C65         C298   1.469       .  S
C65          C66   1.400       .  A
C66          C67   1.399       .  A
C66          H70   1.084       .  S
C67         C172   1.465       .  S
C67          C68   1.401       .  A
C68          H71   1.084       .  S
C72         C338   1.474       .  S
C72          C73   1.401       .  A
C72          C77   1.401       .  A
C73          C74   1.402       .  A
C73          H78   1.084       .  S
C74         C101   1.474       .  S
C74          C75   1.404       .  A
C75          C76   1.408       .  A
C75          H79   1.084       .  S
C76         C351   1.487       .  S
C76          C77   1.406       .  A
C77          H80   1.084       .  S
C81         C321   1.487       .  S
C81          C82   1.406       .  A
C81          C86   1.403       .  A
C82          C83   1.414       .  A
C82          H87   1.083       .  S
C83         C331   1.493       .  S
C83          C84   1.410       .  A
C84          C85   1.400       .  A
C84          H88   1.083       .  S
C85         C183   1.472       .  S
C85          C86   1.396       .  A
C86          H89   1.084       .  S
C90         C288   1.471       .  S
C90          C91   1.403       .  A
C90          C95   1.401       .  A
C91          C92   1.403       .  A
C91          H96   1.084       .  S
C92         C281   1.478       .  S
C92          C93   1.402       .  A
C93          C94   1.400       .  A
C93          H97   1.084       .  S
C94         C190   1.466       .  S
C94          C95   1.400       .  A
C95          H98   1.084       .  S
C99         C268   1.485       .  S
C99         C100   1.402       .  A
C99         C460   1.406       .  A
C100        C457   1.400       .  A
C100        H105   1.084       .  S
C101        C102   1.405       .  A
C101        C456   1.400   1_545  A
C102        C103   1.409       .  A
C102        H106   1.083       .  S
C103        C261   1.494       .  S
C103        C104   1.408       .  A
C104        C455   1.406   1_545  A
C104        H107   1.083       .  S
O108       Zr120   2.423       .  S
O108        C110   1.285       .  A
O109       Zr146   2.447       .  S
O109        C110   1.290       .  A
C110        C208   1.482       .  S
O111       Zr123   2.425       .  S
O111        C113   1.285       .  A
O112       Zr147   2.437       .  S
O112        C113   1.289       .  A
C113        C228   1.481       .  S
O114       Zr123   2.427       .  S
O114        C116   1.285       .  A
O115       Zr146   2.441   1_554  S
O115        C116   1.289       .  A
C116        C271   1.472       .  S
O117       Zr120   2.416       .  S
O117        C119   1.285       .  A
O118       Zr147   2.447   1_556  S
O118        C119   1.291       .  A
C119        C248   1.483       .  S
Zr120       O121   2.434       .  S
Zr120       O122   2.435       .  S
Zr120       O126   2.359       .  S
Zr120       O127   2.363       .  S
Zr120       O150   2.370       .  S
Zr120       O152   2.365       .  S
O121        H164   0.990       .  S
O122        H163   0.990       .  S
O122        H167   0.990       .  S
Zr123       O124   2.437       .  S
Zr123       O125   2.435       .  S
Zr123       O127   2.363   1_554  S
Zr123       O126   2.362   1_554  S
Zr123       O151   2.367       .  S
Zr123       O153   2.371       .  S
O124        H165   0.990       .  S
O124        H168   0.990       .  S
O125        H158   0.990       .  S
O126       Zr146   2.383       .  S
O127       Zr147   2.395   1_556  S
O127        H154   0.966       .  S
O128       Zr140   2.432       .  S
O128        C130   1.285       .  A
O129       Zr147   2.452   1_556  S
O129        C130   1.291       .  A
C130        C198   1.473       .  S
O131       Zr143   2.413       .  S
O131        C133   1.284       .  A
O132       Zr146   2.445   1_554  S
O132        C133   1.290       .  A
C133        C218   1.484       .  S
O134       Zr143   2.423       .  S
O134        C136   1.284       .  A
O135       Zr147   2.456       .  S
O135        C136   1.292       .  A
C136        C258   1.471       .  S
O137       Zr140   2.414       .  S
O137        C139   1.284       .  A
O138       Zr146   2.447       .  S
O138        C139   1.290       .  A
C139        C238   1.488       .  S
Zr140       O141   2.437       .  S
Zr140       O142   2.434       .  S
Zr140       O148   2.359   1_556  S
Zr140       O149   2.370   1_556  S
Zr140       O152   2.367       .  S
Zr140       O150   2.366       .  S
O141        H161   0.990       .  S
O141        H166   0.990       .  S
O142        H162   0.990       .  S
Zr143       O144   2.433       .  S
Zr143       O145   2.434       .  S
Zr143       O149   2.367       .  S
Zr143       O148   2.361       .  S
Zr143       O153   2.365       .  S
Zr143       O151   2.366       .  S
O144        H160   0.990       .  S
O145        H159   0.990       .  S
O145        H169   0.990       .  S
Zr146       O149   2.386   1_556  S
Zr146       O151   2.397   1_556  S
Zr146       O152   2.397       .  S
Zr147       O148   2.387       .  S
Zr147       O150   2.395   1_554  S
Zr147       O153   2.396       .  S
O148        H156   0.965       .  S
O151        H155   0.966       .  S
O152        H157   0.966       .  S
C170        C221   1.488       .  S
C170        C171   1.408       .  A
C170        C175   1.412       .  A
C171        C172   1.394       .  A
C171        H176   1.084       .  S
C172        C885   1.391       .  A
C173        C174   1.403       .  A
C173        C884   1.391   1_455  A
C173        H177   1.085       .  S
C174        C231   1.483       .  S
C174        C887   1.410   1_455  A
C175        C886   1.410       .  A
C175        H178   1.083       .  S
C179        C211   1.491       .  S
C179        C184   1.404       .  A
C179        C536   1.410       .  A
C180        C181   1.413       .  A
C180        C535   1.410   1_545  A
C180        H185   1.083       .  S
C181        C201   1.493       .  S
C181        C182   1.409       .  A
C182        C183   1.402       .  A
C182        H186   1.084       .  S
C183        C540   1.395   1_545  A
C184        C539   1.395       .  A
C184        H187   1.084       .  S
C188        C241   1.481       .  S
C188        C189   1.406       .  A
C188        C193   1.409       .  A
C189        C190   1.395       .  A
C189        H194   1.084       .  S
C190        C903   1.393       .  A
C191        C192   1.404       .  A
C191        C902   1.393   1_455  A
C191        H195   1.084       .  S
C192        C251   1.484       .  S
C192        C905   1.409   1_455  A
C193        C904   1.409       .  A
C193        H196   1.083       .  S
C197        C198   1.402       .  A
C197        C202   1.397       .  A
C197        H204   1.084       .  S
C198        C199   1.403       .  A
C199        C200   1.406       .  A
C199        F206   1.357       .  S
C200        C201   1.412       .  A
C200        H205   1.083       .  S
C201        C202   1.408       .  A
C202        F203   1.357       .  S
C207        C208   1.406       .  A
C207        C212   1.407       .  A
C207        H214   1.083       .  S
C208        C209   1.407       .  A
C209        C210   1.391       .  A
C209        F216   1.358       .  S
C210        C211   1.405       .  A
C210        H215   1.083       .  S
C211        C212   1.411       .  A
C212        F213   1.357       .  S
C217        C218   1.406       .  A
C217        C222   1.388       .  A
C217        H224   1.083       .  S
C218        C219   1.408       .  A
C219        C220   1.407       .  A
C219        F226   1.357       .  S
C220        C221   1.410       .  A
C220        H225   1.083       .  S
C221        C222   1.406       .  A
C222        F223   1.358       .  S
C227        C228   1.408       .  A
C227        C232   1.405       .  A
C227        H234   1.082       .  S
C228        C229   1.409       .  A
C229        C230   1.388       .  A
C229        F236   1.358       .  S
C230        C231   1.403       .  A
C230        H235   1.084       .  S
C231        C232   1.408       .  A
C232        F233   1.357       .  S
C237        C238   1.409       .  A
C237        C242   1.388       .  A
C237        H244   1.083       .  S
C238        C239   1.410       .  A
C239        C240   1.407       .  A
C239        F246   1.357       .  S
C240        C241   1.407       .  A
C240        H245   1.083       .  S
C241        C242   1.402       .  A
C242        F243   1.358       .  S
C247        C248   1.406       .  A
C247        C252   1.388       .  A
C247        H254   1.083       .  S
C248        C249   1.409       .  A
C249        C250   1.405       .  A
C249        F256   1.357       .  S
C250        C251   1.408       .  A
C250        H255   1.083       .  S
C251        C252   1.406       .  A
C252        F253   1.358       .  S
C257        C258   1.401       .  A
C257        C262   1.395       .  A
C257        H264   1.084       .  S
C258        C259   1.403       .  A
C259        C260   1.406       .  A
C259        F266   1.357       .  S
C260        C261   1.411       .  A
C260        H265   1.083       .  S
C261        C262   1.410       .  A
C262        F263   1.357       .  S
C267        C268   1.409       .  A
C267        C272   1.403       .  A
C267        H274   1.083       .  S
C268        C269   1.406       .  A
C269        C270   1.394       .  A
C269        F276   1.357       .  S
C270        C271   1.403       .  A
C270        H275   1.084       .  S
C271        C272   1.403       .  A
C272        F273   1.357       .  S
C277        C278   1.401       .  A
C277        C282   1.402       .  A
C277        H284   1.083       .  S
C278        C991   1.405   1_455  A
C279        C280   1.393       .  A
C279        C990   1.405       .  A
C279        F286   1.358       .  S
C280        C281   1.401       .  A
C280        H285   1.084       .  S
C281        C994   1.410       .  A
C282        C993   1.410       .  A
C282        F283   1.357       .  S
C287        C288   1.404       .  A
C287        C292   1.403       .  A
C287        H294   1.083       .  S
C288       C1001   1.400       .  A
C289        C290   1.391       .  A
C289       C1000   1.400   1_455  A
C289        F296   1.358       .  S
C290       C1003   1.406   1_455  A
C290        H295   1.084       .  S
C291        C292   1.406       .  A
C291       C1002   1.406       .  A
C292        F293   1.357       .  S
C297        C298   1.397       .  A
C297        C302   1.390       .  A
C297        H304   1.084       .  S
C298       C1011   1.407       .  A
C299        C300   1.403       .  A
C299       C1010   1.407       .  A
C299        F306   1.357       .  S
C300        C301   1.402       .  A
C300        H305   1.083       .  S
C301       C1014   1.408   1_455  A
C302       C1013   1.408       .  A
C302        F303   1.358       .  S
C307        C308   1.404       .  A
C307        C312   1.402       .  A
C307        H314   1.083       .  S
C308       C1021   1.409       .  A
C309        C310   1.390       .  A
C309       C1020   1.409   1_455  A
C309        F316   1.358       .  S
C310       C1023   1.398   1_455  A
C310        H315   1.084       .  S
C311        C312   1.405       .  A
C311       C1022   1.398       .  A
C312        F313   1.357       .  S
C317        C322   1.387       .  A
C317        C674   1.411   1_545  A
C317        H324   1.083       .  S
C318        C319   1.410       .  A
C318        C673   1.411       .  A
C319        C320   1.410       .  A
C319        F326   1.357       .  S
C320        C677   1.410       .  A
C320        H325   1.083       .  S
C321        C322   1.402       .  A
C321        C676   1.410   1_545  A
C322        F323   1.358       .  S
C327        C328   1.400       .  A
C327        C332   1.402       .  A
C327        H334   1.083       .  S
C328        C329   1.402       .  A
C329        C330   1.397       .  A
C329        F336   1.358   1_545  S
C330        C331   1.407       .  A
C330        H335   1.083   1_545  S
C331        C332   1.414       .  A
C332        F333   1.357       .  S
C337        C342   1.408       .  A
C337        C694   1.407       .  A
C337        H344   1.083       .  S
C338        C339   1.398       .  A
C338        C693   1.407   1_545  A
C339        C340   1.390       .  A
C339        F346   1.358       .  S
C340        C697   1.408   1_545  A
C340        H345   1.083       .  S
C341        C342   1.407       .  A
C341        C696   1.408       .  A
C342        F343   1.357       .  S
C347        C348   1.400   1_565  A
C347        C352   1.394       .  A
C347        H354   1.084       .  S
C348        C349   1.404       .  A
C349        C350   1.403       .  A
C349        F356   1.357       .  S
C350        C351   1.409       .  A
C350        H355   1.083       .  S
C351        C352   1.408   1_545  A
C352        F353   1.357       .  S
O357       Zr369   2.431       .  S
O358       Zr395   2.434       .  S
O358        C359   1.287       .  A
C359        C704   1.469       .  S
O360       Zr372   2.432       .  S
O360       C1074   1.286       .  A
O361       Zr396   2.441       .  S
O361        C362   1.289       .  A
C362       O1072   1.286   1_455  A
C362        C634   1.467       .  S
O363       Zr372   2.438       .  S
O364       Zr395   2.434       .  S
O364        C365   1.288       .  A
C365        C684   1.470       .  S
O366       Zr369   2.419       .  S
O366       C1080   1.285       .  A
O367       Zr396   2.446       .  S
O367        C368   1.290       .  A
C368       O1078   1.285   1_455  A
C368        C657   1.468       .  S
Zr369       O370   2.434       .  S
Zr369       O371   2.434       .  S
Zr369       O375   2.364       .  S
Zr369       O376   2.364       .  S
Zr369      O1111   2.375       .  S
O370        H413   0.990       .  S
O371        H412   0.990       .  S
O371        H416   0.990       .  S
Zr372       O373   2.437       .  S
Zr372       O374   2.435       .  S
Zr372       O376   2.362       .  S
Zr372       O375   2.366       .  S
Zr372      O1114   2.376       .  S
O373        H414   0.990       .  S
O373        H417   0.990       .  S
O374        H407   0.990       .  S
O376      Zr1108   2.401       .  S
O376        H403   0.964       .  S
O377       Zr389   2.416       .  S
O378       Zr396   2.456       .  S
O378        C379   1.292       .  A
C379        C697   1.480       .  S
O380       Zr392   2.414       .  S
O380       C1094   1.284   1_455  A
O381       Zr395   2.439       .  S
O381        C382   1.289       .  A
C382       O1092   1.284       .  A
C382        C647   1.475       .  S
O383       Zr392   2.402       .  S
O384       Zr396   2.467       .  S
O384        C385   1.293       .  A
C385        C674   1.492       .  S
O386       Zr389   2.416       .  S
O386       C1100   1.284   1_455  A
O387       Zr395   2.434       .  S
O387        C388   1.288       .  A
C388       O1098   1.284       .  A
C388        C664   1.472       .  S
Zr389       O390   2.437       .  S
Zr389       O391   2.434       .  S
Zr389       O397   2.364       .  S
Zr389       O398   2.363       .  S
Zr389      O1113   2.364   1_455  S
O390        H410   0.990       .  S
O390        H415   0.990       .  S
O391        H411   0.990       .  S
Zr392       O393   2.434       .  S
Zr392       O394   2.434       .  S
Zr392       O398   2.359       .  S
Zr392       O397   2.362       .  S
Zr392      O1112   2.360   1_455  S
O393        H409   0.990       .  S
O394        H408   0.990       .  S
O394        H418   0.990       .  S
Zr395      O1110   2.376       .  S
Zr395       O400   2.392       .  S
Zr395       O401   2.393       .  S
Zr396      O1088   2.401   1_455  S
Zr396       O399   2.400       .  S
Zr396       O402   2.399       .  S
O397        H405   0.965       .  S
O398      Zr1107   2.376   1_455  S
O399      Zr1081   2.375   1_455  S
O400      Zr1104   2.360       .  S
O400        H404   0.966       .  S
O401      Zr1101   2.364       .  S
O401        H406   0.966       .  S
O402      Zr1084   2.376   1_455  S
C419        C667   1.470       .  S
C419        C420   1.402       .  A
C419        C424   1.401       .  A
C420        C421   1.400       .  A
C420        H425   1.084       .  S
C421        C654   1.469       .  S
C421        C422   1.400       .  A
C422        C423   1.399       .  A
C422        H426   1.084       .  S
C423        C528   1.465       .  S
C423        C424   1.401       .  A
C424        H427   1.084       .  S
C428        C694   1.474       .  S
C428        C429   1.401       .  A
C428        C433   1.401       .  A
C429        C430   1.402       .  A
C429        H434   1.084       .  S
C430        C457   1.474       .  S
C430        C431   1.404       .  A
C431        C432   1.408       .  A
C431        H435   1.084       .  S
C432        C707   1.487       .  S
C432        C433   1.406       .  A
C433        H436   1.084       .  S
C437        C677   1.487       .  S
C437        C438   1.406       .  A
C437        C442   1.403       .  A
C438        C439   1.414       .  A
C438        H443   1.083       .  S
C439        C687   1.493       .  S
C439        C440   1.410       .  A
C440        C441   1.400       .  A
C440        H444   1.083       .  S
C441        C539   1.472       .  S
C441        C442   1.396       .  A
C442        H445   1.084       .  S
C446        C644   1.471       .  S
C446        C447   1.403       .  A
C446        C451   1.401       .  A
C447        C448   1.403       .  A
C447        H452   1.084       .  S
C448        C637   1.478       .  S
C448        C449   1.402       .  A
C449        C450   1.400       .  A
C449        H453   1.084       .  S
C450        C546   1.466       .  S
C450        C451   1.400       .  A
C451        H454   1.084       .  S
C455        C624   1.485       .  S
C455        C456   1.402       .  A
C456        H461   1.084       .  S
C457        C458   1.405       .  A
C458        C459   1.409       .  A
C458        H462   1.083       .  S
C459        C617   1.494       .  S
C459        C460   1.408       .  A
C460        H463   1.083       .  S
O464       Zr476   2.423       .  S
O464        C466   1.285       .  A
O465       Zr502   2.447       .  S
O465        C466   1.290       .  A
C466        C564   1.482       .  S
O467       Zr479   2.425       .  S
O467        C469   1.285       .  A
O468       Zr503   2.437       .  S
O468        C469   1.289       .  A
C469        C584   1.481       .  S
O470       Zr479   2.427       .  S
O470        C472   1.285       .  A
O471       Zr502   2.441   1_554  S
O471        C472   1.289       .  A
C472        C627   1.472       .  S
O473       Zr476   2.416       .  S
O473        C475   1.285       .  A
O474       Zr503   2.447   1_556  S
O474        C475   1.291       .  A
C475        C604   1.483       .  S
Zr476       O477   2.434       .  S
Zr476       O478   2.435       .  S
Zr476       O482   2.359       .  S
Zr476       O483   2.363       .  S
Zr476       O506   2.370       .  S
Zr476       O508   2.365       .  S
O477        H520   0.990       .  S
O478        H519   0.990       .  S
O478        H523   0.990       .  S
Zr479       O480   2.437       .  S
Zr479       O481   2.435       .  S
Zr479       O483   2.363   1_554  S
Zr479       O482   2.362   1_554  S
Zr479       O507   2.367       .  S
Zr479       O509   2.371       .  S
O480        H521   0.990       .  S
O480        H524   0.990       .  S
O481        H514   0.990       .  S
O482       Zr502   2.383       .  S
O483       Zr503   2.395   1_556  S
O483        H510   0.966       .  S
O484       Zr496   2.432       .  S
O484        C486   1.285       .  A
O485       Zr503   2.452   1_556  S
O485        C486   1.291       .  A
C486        C554   1.473       .  S
O487       Zr499   2.413       .  S
O487        C489   1.284       .  A
O488       Zr502   2.445   1_554  S
O488        C489   1.290       .  A
C489        C574   1.484       .  S
O490       Zr499   2.423       .  S
O490        C492   1.284       .  A
O491       Zr503   2.456       .  S
O491        C492   1.292       .  A
C492        C614   1.471       .  S
O493       Zr496   2.414       .  S
O493        C495   1.284       .  A
O494       Zr502   2.447       .  S
O494        C495   1.290       .  A
C495        C594   1.488       .  S
Zr496       O497   2.437       .  S
Zr496       O498   2.434       .  S
Zr496       O504   2.359   1_556  S
Zr496       O505   2.370   1_556  S
Zr496       O508   2.367       .  S
Zr496       O506   2.366       .  S
O497        H517   0.990       .  S
O497        H522   0.990       .  S
O498        H518   0.990       .  S
Zr499       O500   2.433       .  S
Zr499       O501   2.434       .  S
Zr499       O505   2.367       .  S
Zr499       O504   2.361       .  S
Zr499       O509   2.365       .  S
Zr499       O507   2.366       .  S
O500        H516   0.990       .  S
O501        H515   0.990       .  S
O501        H525   0.990       .  S
Zr502       O505   2.386   1_556  S
Zr502       O507   2.397   1_556  S
Zr502       O508   2.397       .  S
Zr503       O504   2.387       .  S
Zr503       O506   2.395   1_554  S
Zr503       O509   2.396       .  S
O504        H512   0.965       .  S
O507        H511   0.966       .  S
O508        H513   0.966       .  S
C526        C577   1.488       .  S
C526        C527   1.408       .  A
C526        C531   1.412       .  A
C527        C528   1.394       .  A
C527        H532   1.084       .  S
C528       C1241   1.391       .  A
C529       C1240   1.391   1_455  A
C529        C530   1.403       .  A
C529        H533   1.085       .  S
C530        C587   1.483       .  S
C530       C1243   1.410   1_455  A
C531       C1242   1.410       .  A
C531        H534   1.083       .  S
C535        C567   1.491       .  S
C535        C540   1.404       .  A
C536        C537   1.413       .  A
C536        H541   1.083       .  S
C537        C557   1.493       .  S
C537        C538   1.409       .  A
C538        C539   1.402       .  A
C538        H542   1.084       .  S
C540        H543   1.084       .  S
C544        C597   1.481       .  S
C544        C545   1.406       .  A
C544        C549   1.409       .  A
C545        C546   1.395       .  A
C545        H550   1.084       .  S
C546       C1259   1.393       .  A
C547       C1258   1.393   1_455  A
C547        C548   1.404       .  A
C547        H551   1.084       .  S
C548        C607   1.484       .  S
C548       C1261   1.409   1_455  A
C549       C1260   1.409       .  A
C549        H552   1.083       .  S
C553        C554   1.402       .  A
C553        C558   1.397       .  A
C553        H560   1.084       .  S
C554        C555   1.403       .  A
C555        C556   1.406       .  A
C555        F562   1.357       .  S
C556        C557   1.412       .  A
C556        H561   1.083       .  S
C557        C558   1.408       .  A
C558        F559   1.357       .  S
C563        C564   1.406       .  A
C563        C568   1.407       .  A
C563        H570   1.083       .  S
C564        C565   1.407       .  A
C565        C566   1.391       .  A
C565        F572   1.358       .  S
C566        C567   1.405       .  A
C566        H571   1.083       .  S
C567        C568   1.411       .  A
C568        F569   1.357       .  S
C573        C574   1.406       .  A
C573        C578   1.388       .  A
C573        H580   1.083       .  S
C574        C575   1.408       .  A
C575        C576   1.407       .  A
C575        F582   1.357       .  S
C576        C577   1.410       .  A
C576        H581   1.083       .  S
C577        C578   1.406       .  A
C578        F579   1.358       .  S
C583        C584   1.408       .  A
C583        C588   1.405       .  A
C583        H590   1.082       .  S
C584        C585   1.409       .  A
C585        C586   1.388       .  A
C585        F592   1.358       .  S
C586        C587   1.403       .  A
C586        H591   1.084       .  S
C587        C588   1.408       .  A
C588        F589   1.357       .  S
C593        C594   1.409       .  A
C593        C598   1.388       .  A
C593        H600   1.083       .  S
C594        C595   1.410       .  A
C595        C596   1.407       .  A
C595        F602   1.357       .  S
C596        C597   1.407       .  A
C596        H601   1.083       .  S
C597        C598   1.402       .  A
C598        F599   1.358       .  S
C603        C604   1.406       .  A
C603        C608   1.388       .  A
C603        H610   1.083       .  S
C604        C605   1.409       .  A
C605        C606   1.405       .  A
C605        F612   1.357       .  S
C606        C607   1.408       .  A
C606        H611   1.083       .  S
C607        C608   1.406       .  A
C608        F609   1.358       .  S
C613        C614   1.401       .  A
C613        C618   1.395       .  A
C613        H620   1.084       .  S
C614        C615   1.403       .  A
C615        C616   1.406       .  A
C615        F622   1.357       .  S
C616        C617   1.411       .  A
C616        H621   1.083       .  S
C617        C618   1.410       .  A
C618        F619   1.357       .  S
C623        C624   1.409       .  A
C623        C628   1.403       .  A
C623        H630   1.083       .  S
C624        C625   1.406       .  A
C625        C626   1.394       .  A
C625        F632   1.357       .  S
C626        C627   1.403       .  A
C626        H631   1.084       .  S
C627        C628   1.403       .  A
C628        F629   1.357       .  S
C633        C634   1.401       .  A
C633        C638   1.402       .  A
C633        H640   1.083       .  S
C634       C1347   1.405   1_455  A
C635       C1346   1.405       .  A
C635        C636   1.393       .  A
C635        F642   1.358       .  S
C636        C637   1.401       .  A
C636        H641   1.084       .  S
C637       C1350   1.410       .  A
C638       C1349   1.410       .  A
C638        F639   1.357       .  S
C643        C644   1.404       .  A
C643        C648   1.403       .  A
C643        H650   1.083       .  S
C644       C1357   1.400       .  A
C645       C1356   1.400   1_455  A
C645        C646   1.391       .  A
C645        F652   1.358       .  S
C646       C1359   1.406   1_455  A
C646        H651   1.084       .  S
C647       C1358   1.406       .  A
C647        C648   1.406       .  A
C648        F649   1.357       .  S
C653        C654   1.397       .  A
C653        C658   1.390       .  A
C653        H660   1.084       .  S
C654       C1367   1.407       .  A
C655       C1366   1.407       .  A
C655        C656   1.403       .  A
C655        F662   1.357       .  S
C656        C657   1.402       .  A
C656        H661   1.083       .  S
C657       C1370   1.408   1_455  A
C658       C1369   1.408       .  A
C658        F659   1.358       .  S
C663        C664   1.404       .  A
C663        C668   1.402       .  A
C663        H670   1.083       .  S
C664       C1377   1.409       .  A
C665       C1376   1.409   1_455  A
C665        C666   1.390       .  A
C665        F672   1.358       .  S
C666       C1379   1.398   1_455  A
C666        H671   1.084       .  S
C667       C1378   1.398       .  A
C667        C668   1.405       .  A
C668        F669   1.357       .  S
C673        C678   1.387       .  A
C673        H680   1.083       .  S
C674        C675   1.410       .  A
C675        C676   1.410       .  A
C675        F682   1.357       .  S
C676        H681   1.083       .  S
C677        C678   1.402       .  A
C678        F679   1.358       .  S
C683        C684   1.400       .  A
C683        C688   1.402       .  A
C683        H690   1.083       .  S
C684        C685   1.402       .  A
C685        C686   1.397       .  A
C685        F692   1.358       .  S
C686        C687   1.407       .  A
C686        H691   1.083       .  S
C687        C688   1.414       .  A
C688        F689   1.357       .  S
C693        C698   1.408       .  A
C693        H700   1.083       .  S
C694        C695   1.398       .  A
C695        C696   1.390       .  A
C695        F702   1.358       .  S
C696        H701   1.083       .  S
C697        C698   1.407       .  A
C698        F699   1.357       .  S
C703        C704   1.400       .  A
C703        C708   1.394       .  A
C703        H710   1.084       .  S
C704        C705   1.404       .  A
C705        C706   1.403       .  A
C705        F712   1.357       .  S
C706        C707   1.409       .  A
C706        H711   1.083       .  S
C707        C708   1.408       .  A
C708        F709   1.357       .  S
O713       Zr725   2.431       .  S
O713       C1071   1.286       .  A
O714       Zr751   2.434       .  S
O714        C715   1.287       .  A
C715       O1069   1.286   1_545  A
C715       C1060   1.469       .  S
O716       Zr728   2.432       .  S
O717       Zr752   2.441       .  S
O717        C718   1.289       .  A
C718        C990   1.467       .  S
O719       Zr728   2.438       .  S
O719       C1077   1.287       .  A
O720       Zr751   2.434       .  S
O720        C721   1.288       .  A
C721       O1075   1.287   1_545  A
C721       C1040   1.470       .  S
O722       Zr725   2.419       .  S
O723       Zr752   2.446       .  S
O723        C724   1.290       .  A
C724       C1013   1.468       .  S
Zr725       O726   2.434       .  S
Zr725       O727   2.434       .  S
Zr725       O731   2.364       .  S
Zr725       O732   2.364       .  S
Zr725      O1113   2.363       .  S
O726        H769   0.990       .  S
O727        H768   0.990       .  S
O727        H772   0.990       .  S
Zr728       O729   2.437       .  S
Zr728       O730   2.435       .  S
Zr728       O732   2.362       .  S
Zr728       O731   2.366       .  S
Zr728      O1112   2.367       .  S
O729        H770   0.990       .  S
O729        H773   0.990       .  S
O730        H763   0.990       .  S
O731      Zr1107   2.381       .  S
O732        H759   0.964       .  S
O733       Zr745   2.416       .  S
O733       C1091   1.283   1_545  A
O734       Zr752   2.456       .  S
O734        C735   1.292       .  A
C735       O1089   1.283       .  A
C735       C1053   1.480       .  S
O736       Zr748   2.414       .  S
O737       Zr751   2.439       .  S
O737        C738   1.289       .  A
C738       C1003   1.475       .  S
O739       Zr748   2.402       .  S
O739       C1097   1.282   1_545  A
O740       Zr752   2.467       .  S
O740        C741   1.293       .  A
C741       O1095   1.282       .  A
C741       C1030   1.492       .  S
O742       Zr745   2.416       .  S
O743       Zr751   2.434       .  S
O743        C744   1.288       .  A
C744       C1020   1.472       .  S
Zr745       O746   2.437       .  S
Zr745       O747   2.434       .  S
Zr745       O753   2.364       .  S
Zr745       O754   2.363       .  S
Zr745      O1111   2.368   1_545  S
O746        H766   0.990       .  S
O746        H771   0.990       .  S
O747        H767   0.990       .  S
Zr748       O749   2.434       .  S
Zr748       O750   2.434       .  S
Zr748       O754   2.359       .  S
Zr748       O753   2.362       .  S
Zr748      O1114   2.367   1_545  S
O749        H765   0.990       .  S
O750        H764   0.990       .  S
O750        H774   0.990       .  S
Zr751      O1087   2.381   1_545  S
Zr751       O756   2.392       .  S
Zr751       O757   2.393       .  S
Zr752      O1109   2.386       .  S
Zr752       O755   2.400       .  S
Zr752       O758   2.399       .  S
O753      Zr1108   2.386   1_545  S
O753        H761   0.965       .  S
O755      Zr1101   2.368       .  S
O756      Zr1084   2.367   1_545  S
O756        H760   0.966       .  S
O757      Zr1081   2.363   1_545  S
O757        H762   0.966       .  S
O758      Zr1104   2.367       .  S
C775       C1023   1.470       .  S
C775        C776   1.402       .  A
C775        C780   1.401       .  A
C776        C777   1.400   1_655  A
C776        H781   1.084       .  S
C777       C1010   1.469       .  S
C777        C778   1.400   1_455  A
C778        C779   1.399       .  A
C778        H782   1.084   1_655  S
C779        C884   1.465       .  S
C779        C780   1.401       .  A
C780        H783   1.084       .  S
C784       C1050   1.474       .  S
C784        C785   1.401       .  A
C784        C789   1.401       .  A
C785        C786   1.402       .  A
C785        H790   1.084       .  S
C786        C813   1.474       .  S
C786        C787   1.404       .  A
C787        C788   1.408       .  A
C787        H791   1.084       .  S
C788       C1063   1.487       .  S
C788        C789   1.406       .  A
C789        H792   1.084       .  S
C793       C1033   1.487       .  S
C793        C794   1.406       .  A
C793        C798   1.403       .  A
C794        C795   1.414       .  A
C794        H799   1.083       .  S
C795       C1043   1.493       .  S
C795        C796   1.410       .  A
C796        C797   1.400       .  A
C796        H800   1.083       .  S
C797        C895   1.472       .  S
C797        C798   1.396       .  A
C798        H801   1.084       .  S
C802       C1000   1.471       .  S
C802        C803   1.403       .  A
C802        C807   1.401       .  A
C803        C804   1.403   1_655  A
C803        H808   1.084       .  S
C804        C993   1.478       .  S
C804        C805   1.402   1_455  A
C805        C806   1.400       .  A
C805        H809   1.084   1_655  S
C806        C902   1.466       .  S
C806        C807   1.400       .  A
C807        H810   1.084       .  S
C811        C980   1.485       .  S
C811        C812   1.402       .  A
C811       C1172   1.406       .  A
C812       C1169   1.400       .  A
C812        H817   1.084       .  S
C813       C1168   1.400   1_545  A
C813        C814   1.405       .  A
C814        C815   1.409       .  A
C814        H818   1.083       .  S
C815        C973   1.494       .  S
C815        C816   1.408       .  A
C816       C1167   1.406   1_545  A
C816        H819   1.083       .  S
O820       Zr832   2.423       .  S
O820        C822   1.285       .  A
O821       Zr858   2.447       .  S
O821        C822   1.290       .  A
C822        C920   1.482       .  S
O823       Zr835   2.425       .  S
O823        C825   1.285       .  A
O824       Zr859   2.437       .  S
O824        C825   1.289       .  A
C825        C940   1.481       .  S
O826       Zr835   2.427       .  S
O826        C828   1.285       .  A
O827       Zr858   2.441   1_554  S
O827        C828   1.289       .  A
C828        C983   1.472       .  S
O829       Zr832   2.416       .  S
O829        C831   1.285       .  A
O830       Zr859   2.447   1_556  S
O830        C831   1.291       .  A
C831        C960   1.483       .  S
Zr832       O833   2.434       .  S
Zr832       O834   2.435       .  S
Zr832       O838   2.359       .  S
Zr832       O839   2.363       .  S
Zr832       O862   2.370       .  S
Zr832       O864   2.365       .  S
O833        H876   0.990       .  S
O834        H875   0.990       .  S
O834        H879   0.990       .  S
Zr835       O836   2.437       .  S
Zr835       O837   2.435       .  S
Zr835       O839   2.363   1_554  S
Zr835       O838   2.362   1_554  S
Zr835       O863   2.367       .  S
Zr835       O865   2.371       .  S
O836        H877   0.990       .  S
O836        H880   0.990       .  S
O837        H870   0.990       .  S
O838       Zr858   2.383       .  S
O839       Zr859   2.395   1_556  S
O839        H866   0.966       .  S
O840       Zr852   2.432       .  S
O840        C842   1.285       .  A
O841       Zr859   2.452   1_556  S
O841        C842   1.291       .  A
C842        C910   1.473       .  S
O843       Zr855   2.413       .  S
O843        C845   1.284       .  A
O844       Zr858   2.445   1_554  S
O844        C845   1.290       .  A
C845        C930   1.484       .  S
O846       Zr855   2.423       .  S
O846        C848   1.284       .  A
O847       Zr859   2.456       .  S
O847        C848   1.292       .  A
C848        C970   1.471       .  S
O849       Zr852   2.414       .  S
O849        C851   1.284       .  A
O850       Zr858   2.447       .  S
O850        C851   1.290       .  A
C851        C950   1.488       .  S
Zr852       O853   2.437       .  S
Zr852       O854   2.434       .  S
Zr852       O860   2.359   1_556  S
Zr852       O861   2.370   1_556  S
Zr852       O864   2.367       .  S
Zr852       O862   2.366       .  S
O853        H873   0.990       .  S
O853        H878   0.990       .  S
O854        H874   0.990       .  S
Zr855       O856   2.433       .  S
Zr855       O857   2.434       .  S
Zr855       O861   2.367       .  S
Zr855       O860   2.361       .  S
Zr855       O865   2.365       .  S
Zr855       O863   2.366       .  S
O856        H872   0.990       .  S
O857        H871   0.990       .  S
O857        H881   0.990       .  S
Zr858       O861   2.386   1_556  S
Zr858       O863   2.397   1_556  S
Zr858       O864   2.397       .  S
Zr859       O860   2.387       .  S
Zr859       O862   2.395   1_554  S
Zr859       O865   2.396       .  S
O860        H868   0.965       .  S
O863        H867   0.966       .  S
O864        H869   0.966       .  S
C882        C933   1.488       .  S
C882        C883   1.408       .  A
C882        C887   1.412       .  A
C883        C884   1.394       .  A
C883        H888   1.084       .  S
C885        C886   1.403       .  A
C885        H889   1.085       .  S
C886        C943   1.483       .  S
C887        H890   1.083       .  S
C891        C923   1.491       .  S
C891       C1248   1.410       .  A
C891        C896   1.404       .  A
C892       C1247   1.410   1_545  A
C892        C893   1.413       .  A
C892        H897   1.083       .  S
C893        C913   1.493       .  S
C893        C894   1.409       .  A
C894        C895   1.402       .  A
C894        H898   1.084       .  S
C895       C1252   1.395   1_545  A
C896       C1251   1.395       .  A
C896        H899   1.084       .  S
C900        C953   1.481       .  S
C900        C901   1.406       .  A
C900        C905   1.409       .  A
C901        C902   1.395       .  A
C901        H906   1.084       .  S
C903        C904   1.404       .  A
C903        H907   1.084       .  S
C904        C963   1.484       .  S
C905        H908   1.083       .  S
C909        C910   1.402       .  A
C909        C914   1.397       .  A
C909        H916   1.084       .  S
C910        C911   1.403       .  A
C911        C912   1.406       .  A
C911        F918   1.357       .  S
C912        C913   1.412       .  A
C912        H917   1.083       .  S
C913        C914   1.408       .  A
C914        F915   1.357       .  S
C919        C920   1.406       .  A
C919        C924   1.407       .  A
C919        H926   1.083       .  S
C920        C921   1.407       .  A
C921        C922   1.391       .  A
C921        F928   1.358       .  S
C922        C923   1.405       .  A
C922        H927   1.083       .  S
C923        C924   1.411       .  A
C924        F925   1.357       .  S
C929        C930   1.406       .  A
C929        C934   1.388       .  A
C929        H936   1.083       .  S
C930        C931   1.408       .  A
C931        C932   1.407       .  A
C931        F938   1.357       .  S
C932        C933   1.410       .  A
C932        H937   1.083       .  S
C933        C934   1.406       .  A
C934        F935   1.358       .  S
C939        C940   1.408       .  A
C939        C944   1.405       .  A
C939        H946   1.082       .  S
C940        C941   1.409       .  A
C941        C942   1.388       .  A
C941        F948   1.358       .  S
C942        C943   1.403       .  A
C942        H947   1.084       .  S
C943        C944   1.408       .  A
C944        F945   1.357       .  S
C949        C950   1.409       .  A
C949        C954   1.388       .  A
C949        H956   1.083       .  S
C950        C951   1.410       .  A
C951        C952   1.407       .  A
C951        F958   1.357       .  S
C952        C953   1.407       .  A
C952        H957   1.083       .  S
C953        C954   1.402       .  A
C954        F955   1.358       .  S
C959        C960   1.406       .  A
C959        C964   1.388       .  A
C959        H966   1.083       .  S
C960        C961   1.409       .  A
C961        C962   1.405       .  A
C961        F968   1.357       .  S
C962        C963   1.408       .  A
C962        H967   1.083       .  S
C963        C964   1.406       .  A
C964        F965   1.358       .  S
C969        C970   1.401       .  A
C969        C974   1.395       .  A
C969        H976   1.084       .  S
C970        C971   1.403       .  A
C971        C972   1.406       .  A
C971        F978   1.357       .  S
C972        C973   1.411       .  A
C972        H977   1.083       .  S
C973        C974   1.410       .  A
C974        F975   1.357       .  S
C979        C980   1.409       .  A
C979        C984   1.403       .  A
C979        H986   1.083       .  S
C980        C981   1.406       .  A
C981        C982   1.394       .  A
C981        F988   1.357       .  S
C982        C983   1.403       .  A
C982        H987   1.084       .  S
C983        C984   1.403       .  A
C984        F985   1.357       .  S
C989        C990   1.401       .  A
C989        C994   1.402       .  A
C989        H996   1.083       .  S
C991        C992   1.393       .  A
C991        F998   1.358       .  S
C992        C993   1.401   1_655  A
C992        H997   1.084       .  S
C994        F995   1.357       .  S
C999       C1000   1.404       .  A
C999       C1004   1.403       .  A
C999       H1006   1.083       .  S
C1001      C1002   1.391       .  A
C1001      F1008   1.358       .  S
C1002      H1007   1.084       .  S
C1003      C1004   1.406       .  A
C1004      F1005   1.357       .  S
C1009      C1010   1.397   1_655  A
C1009      C1014   1.390       .  A
C1009      H1016   1.084       .  S
C1011      C1012   1.403       .  A
C1011      F1018   1.357       .  S
C1012      C1013   1.402       .  A
C1012      H1017   1.083       .  S
C1014      F1015   1.358       .  S
C1019      C1020   1.404       .  A
C1019      C1024   1.402       .  A
C1019      H1026   1.083       .  S
C1021      C1022   1.390       .  A
C1021      F1028   1.358       .  S
C1022      H1027   1.084       .  S
C1023      C1024   1.405       .  A
C1024      F1025   1.357       .  S
C1029      C1386   1.411   1_545  A
C1029      C1034   1.387       .  A
C1029      H1036   1.083       .  S
C1030      C1385   1.411       .  A
C1030      C1031   1.410       .  A
C1031      C1032   1.410       .  A
C1031      F1038   1.357       .  S
C1032      C1389   1.410       .  A
C1032      H1037   1.083       .  S
C1033      C1388   1.410   1_545  A
C1033      C1034   1.402       .  A
C1034      F1035   1.358       .  S
C1039      C1040   1.400       .  A
C1039      C1044   1.402       .  A
C1039      H1046   1.083       .  S
C1040      C1041   1.402       .  A
C1041      C1042   1.397       .  A
C1041      F1048   1.358   1_545  S
C1042      C1043   1.407       .  A
C1042      H1047   1.083   1_545  S
C1043      C1044   1.414       .  A
C1044      F1045   1.357       .  S
C1049      C1406   1.407       .  A
C1049      C1054   1.408       .  A
C1049      H1056   1.083       .  S
C1050      C1405   1.407   1_545  A
C1050      C1051   1.398       .  A
C1051      C1052   1.390       .  A
C1051      F1058   1.358       .  S
C1052      C1409   1.408   1_545  A
C1052      H1057   1.083       .  S
C1053      C1408   1.408       .  A
C1053      C1054   1.407       .  A
C1054      F1055   1.357       .  S
C1059      C1060   1.400   1_565  A
C1059      C1064   1.394       .  A
C1059      H1066   1.084       .  S
C1060      C1061   1.404       .  A
C1061      C1062   1.403       .  A
C1061      F1068   1.357       .  S
C1062      C1063   1.409       .  A
C1062      H1067   1.083       .  S
C1063      C1064   1.408   1_545  A
C1064      F1065   1.357       .  S
O1069     Zr1081   2.431       .  S
O1070     Zr1107   2.434       .  S
O1070      C1071   1.287       .  A
C1071      C1416   1.469       .  S
O1072     Zr1084   2.432       .  S
O1073     Zr1108   2.441       .  S
O1073      C1074   1.289       .  A
C1074      C1346   1.467       .  S
O1075     Zr1084   2.438       .  S
O1076     Zr1107   2.434       .  S
O1076      C1077   1.288       .  A
C1077      C1396   1.470       .  S
O1078     Zr1081   2.419       .  S
O1079     Zr1108   2.446       .  S
O1079      C1080   1.290       .  A
C1080      C1369   1.468       .  S
Zr1081     O1082   2.434       .  S
Zr1081     O1083   2.434       .  S
Zr1081     O1087   2.364       .  S
Zr1081     O1088   2.364       .  S
O1082      H1125   0.990       .  S
O1083      H1124   0.990       .  S
O1083      H1128   0.990       .  S
Zr1084     O1085   2.437       .  S
Zr1084     O1086   2.435       .  S
Zr1084     O1088   2.362       .  S
Zr1084     O1087   2.366       .  S
O1085      H1126   0.990       .  S
O1085      H1129   0.990       .  S
O1086      H1119   0.990       .  S
O1088      H1115   0.964       .  S
O1089     Zr1101   2.416       .  S
O1090     Zr1108   2.456       .  S
O1090      C1091   1.292       .  A
C1091      C1409   1.480       .  S
O1092     Zr1104   2.414       .  S
O1093     Zr1107   2.439       .  S
O1093      C1094   1.289       .  A
C1094      C1359   1.475       .  S
O1095     Zr1104   2.402       .  S
O1096     Zr1108   2.467       .  S
O1096      C1097   1.293       .  A
C1097      C1386   1.492       .  S
O1098     Zr1101   2.416       .  S
O1099     Zr1107   2.434       .  S
O1099      C1100   1.288       .  A
C1100      C1376   1.472       .  S
Zr1101     O1102   2.437       .  S
Zr1101     O1103   2.434       .  S
Zr1101     O1109   2.364       .  S
Zr1101     O1110   2.363       .  S
O1102      H1122   0.990       .  S
O1102      H1127   0.990       .  S
O1103      H1123   0.990       .  S
Zr1104     O1105   2.434       .  S
Zr1104     O1106   2.434       .  S
Zr1104     O1110   2.359       .  S
Zr1104     O1109   2.362       .  S
O1105      H1121   0.990       .  S
O1106      H1120   0.990       .  S
O1106      H1130   0.990       .  S
Zr1107     O1112   2.392       .  S
Zr1107     O1113   2.393       .  S
Zr1108     O1111   2.400       .  S
Zr1108     O1114   2.399       .  S
O1109      H1117   0.965       .  S
O1112      H1116   0.966       .  S
O1113      H1118   0.966       .  S
C1131      C1379   1.470       .  S
C1131      C1132   1.402       .  A
C1131      C1136   1.401       .  A
C1132      C1133   1.400   1_655  A
C1132      H1137   1.084       .  S
C1133      C1366   1.469       .  S
C1133      C1134   1.400   1_455  A
C1134      C1135   1.399       .  A
C1134      H1138   1.084   1_655  S
C1135      C1240   1.465       .  S
C1135      C1136   1.401       .  A
C1136      H1139   1.084       .  S
C1140      C1406   1.474       .  S
C1140      C1141   1.401       .  A
C1140      C1145   1.401       .  A
C1141      C1142   1.402       .  A
C1141      H1146   1.084       .  S
C1142      C1169   1.474       .  S
C1142      C1143   1.404       .  A
C1143      C1144   1.408       .  A
C1143      H1147   1.084       .  S
C1144      C1419   1.487       .  S
C1144      C1145   1.406       .  A
C1145      H1148   1.084       .  S
C1149      C1389   1.487       .  S
C1149      C1150   1.406       .  A
C1149      C1154   1.403       .  A
C1150      C1151   1.414       .  A
C1150      H1155   1.083       .  S
C1151      C1399   1.493       .  S
C1151      C1152   1.410       .  A
C1152      C1153   1.400       .  A
C1152      H1156   1.083       .  S
C1153      C1251   1.472       .  S
C1153      C1154   1.396       .  A
C1154      H1157   1.084       .  S
C1158      C1356   1.471       .  S
C1158      C1159   1.403       .  A
C1158      C1163   1.401       .  A
C1159      C1160   1.403   1_655  A
C1159      H1164   1.084       .  S
C1160      C1349   1.478       .  S
C1160      C1161   1.402   1_455  A
C1161      C1162   1.400       .  A
C1161      H1165   1.084   1_655  S
C1162      C1258   1.466       .  S
C1162      C1163   1.400       .  A
C1163      H1166   1.084       .  S
C1167      C1336   1.485       .  S
C1167      C1168   1.402       .  A
C1168      H1173   1.084       .  S
C1169      C1170   1.405       .  A
C1170      C1171   1.409       .  A
C1170      H1174   1.083       .  S
C1171      C1329   1.494       .  S
C1171      C1172   1.408       .  A
C1172      H1175   1.083       .  S
O1176     Zr1188   2.423       .  S
O1176      C1178   1.285       .  A
O1177     Zr1214   2.447       .  S
O1177      C1178   1.290       .  A
C1178      C1276   1.482       .  S
O1179     Zr1191   2.425       .  S
O1179      C1181   1.285       .  A
O1180     Zr1215   2.437       .  S
O1180      C1181   1.289       .  A
C1181      C1296   1.481       .  S
O1182     Zr1191   2.427       .  S
O1182      C1184   1.285       .  A
O1183     Zr1214   2.441   1_554  S
O1183      C1184   1.289       .  A
C1184      C1339   1.472       .  S
O1185     Zr1188   2.416       .  S
O1185      C1187   1.285       .  A
O1186     Zr1215   2.447   1_556  S
O1186      C1187   1.291       .  A
C1187      C1316   1.483       .  S
Zr1188     O1189   2.434       .  S
Zr1188     O1190   2.435       .  S
Zr1188     O1194   2.359       .  S
Zr1188     O1195   2.363       .  S
Zr1188     O1218   2.370       .  S
Zr1188     O1220   2.365       .  S
O1189      H1232   0.990       .  S
O1190      H1231   0.990       .  S
O1190      H1235   0.990       .  S
Zr1191     O1192   2.437       .  S
Zr1191     O1193   2.435       .  S
Zr1191     O1195   2.363   1_554  S
Zr1191     O1194   2.362   1_554  S
Zr1191     O1219   2.367       .  S
Zr1191     O1221   2.371       .  S
O1192      H1233   0.990       .  S
O1192      H1236   0.990       .  S
O1193      H1226   0.990       .  S
O1194     Zr1214   2.383       .  S
O1195     Zr1215   2.395   1_556  S
O1195      H1222   0.966       .  S
O1196     Zr1208   2.432       .  S
O1196      C1198   1.285       .  A
O1197     Zr1215   2.452   1_556  S
O1197      C1198   1.291       .  A
C1198      C1266   1.473       .  S
O1199     Zr1211   2.413       .  S
O1199      C1201   1.284       .  A
O1200     Zr1214   2.445   1_554  S
O1200      C1201   1.290       .  A
C1201      C1286   1.484       .  S
O1202     Zr1211   2.423       .  S
O1202      C1204   1.284       .  A
O1203     Zr1215   2.456       .  S
O1203      C1204   1.292       .  A
C1204      C1326   1.471       .  S
O1205     Zr1208   2.414       .  S
O1205      C1207   1.284       .  A
O1206     Zr1214   2.447       .  S
O1206      C1207   1.290       .  A
C1207      C1306   1.488       .  S
Zr1208     O1209   2.437       .  S
Zr1208     O1210   2.434       .  S
Zr1208     O1216   2.359   1_556  S
Zr1208     O1217   2.370   1_556  S
Zr1208     O1220   2.367       .  S
Zr1208     O1218   2.366       .  S
O1209      H1229   0.990       .  S
O1209      H1234   0.990       .  S
O1210      H1230   0.990       .  S
Zr1211     O1212   2.433       .  S
Zr1211     O1213   2.434       .  S
Zr1211     O1217   2.367       .  S
Zr1211     O1216   2.361       .  S
Zr1211     O1221   2.365       .  S
Zr1211     O1219   2.366       .  S
O1212      H1228   0.990       .  S
O1213      H1227   0.990       .  S
O1213      H1237   0.990       .  S
Zr1214     O1217   2.386   1_556  S
Zr1214     O1219   2.397   1_556  S
Zr1214     O1220   2.397       .  S
Zr1215     O1216   2.387       .  S
Zr1215     O1218   2.395   1_554  S
Zr1215     O1221   2.396       .  S
O1216      H1224   0.965       .  S
O1219      H1223   0.966       .  S
O1220      H1225   0.966       .  S
C1238      C1289   1.488       .  S
C1238      C1239   1.408       .  A
C1238      C1243   1.412       .  A
C1239      C1240   1.394       .  A
C1239      H1244   1.084       .  S
C1241      C1242   1.403       .  A
C1241      H1245   1.085       .  S
C1242      C1299   1.483       .  S
C1243      H1246   1.083       .  S
C1247      C1279   1.491       .  S
C1247      C1252   1.404       .  A
C1248      C1249   1.413       .  A
C1248      H1253   1.083       .  S
C1249      C1269   1.493       .  S
C1249      C1250   1.409       .  A
C1250      C1251   1.402       .  A
C1250      H1254   1.084       .  S
C1252      H1255   1.084       .  S
C1256      C1309   1.481       .  S
C1256      C1257   1.406       .  A
C1256      C1261   1.409       .  A
C1257      C1258   1.395       .  A
C1257      H1262   1.084       .  S
C1259      C1260   1.404       .  A
C1259      H1263   1.084       .  S
C1260      C1319   1.484       .  S
C1261      H1264   1.083       .  S
C1265      C1266   1.402       .  A
C1265      C1270   1.397       .  A
C1265      H1272   1.084       .  S
C1266      C1267   1.403       .  A
C1267      C1268   1.406       .  A
C1267      F1274   1.357       .  S
C1268      C1269   1.412       .  A
C1268      H1273   1.083       .  S
C1269      C1270   1.408       .  A
C1270      F1271   1.357       .  S
C1275      C1276   1.406       .  A
C1275      C1280   1.407       .  A
C1275      H1282   1.083       .  S
C1276      C1277   1.407       .  A
C1277      C1278   1.391       .  A
C1277      F1284   1.358       .  S
C1278      C1279   1.405       .  A
C1278      H1283   1.083       .  S
C1279      C1280   1.411       .  A
C1280      F1281   1.357       .  S
C1285      C1286   1.406       .  A
C1285      C1290   1.388       .  A
C1285      H1292   1.083       .  S
C1286      C1287   1.408       .  A
C1287      C1288   1.407       .  A
C1287      F1294   1.357       .  S
C1288      C1289   1.410       .  A
C1288      H1293   1.083       .  S
C1289      C1290   1.406       .  A
C1290      F1291   1.358       .  S
C1295      C1296   1.408       .  A
C1295      C1300   1.405       .  A
C1295      H1302   1.082       .  S
C1296      C1297   1.409       .  A
C1297      C1298   1.388       .  A
C1297      F1304   1.358       .  S
C1298      C1299   1.403       .  A
C1298      H1303   1.084       .  S
C1299      C1300   1.408       .  A
C1300      F1301   1.357       .  S
C1305      C1306   1.409       .  A
C1305      C1310   1.388       .  A
C1305      H1312   1.083       .  S
C1306      C1307   1.410       .  A
C1307      C1308   1.407       .  A
C1307      F1314   1.357       .  S
C1308      C1309   1.407       .  A
C1308      H1313   1.083       .  S
C1309      C1310   1.402       .  A
C1310      F1311   1.358       .  S
C1315      C1316   1.406       .  A
C1315      C1320   1.388       .  A
C1315      H1322   1.083       .  S
C1316      C1317   1.409       .  A
C1317      C1318   1.405       .  A
C1317      F1324   1.357       .  S
C1318      C1319   1.408       .  A
C1318      H1323   1.083       .  S
C1319      C1320   1.406       .  A
C1320      F1321   1.358       .  S
C1325      C1326   1.401       .  A
C1325      C1330   1.395       .  A
C1325      H1332   1.084       .  S
C1326      C1327   1.403       .  A
C1327      C1328   1.406       .  A
C1327      F1334   1.357       .  S
C1328      C1329   1.411       .  A
C1328      H1333   1.083       .  S
C1329      C1330   1.410       .  A
C1330      F1331   1.357       .  S
C1335      C1336   1.409       .  A
C1335      C1340   1.403       .  A
C1335      H1342   1.083       .  S
C1336      C1337   1.406       .  A
C1337      C1338   1.394       .  A
C1337      F1344   1.357       .  S
C1338      C1339   1.403       .  A
C1338      H1343   1.084       .  S
C1339      C1340   1.403       .  A
C1340      F1341   1.357       .  S
C1345      C1346   1.401       .  A
C1345      C1350   1.402       .  A
C1345      H1352   1.083       .  S
C1347      C1348   1.393       .  A
C1347      F1354   1.358       .  S
C1348      C1349   1.401   1_655  A
C1348      H1353   1.084       .  S
C1350      F1351   1.357       .  S
C1355      C1356   1.404       .  A
C1355      C1360   1.403       .  A
C1355      H1362   1.083       .  S
C1357      C1358   1.391       .  A
C1357      F1364   1.358       .  S
C1358      H1363   1.084       .  S
C1359      C1360   1.406       .  A
C1360      F1361   1.357       .  S
C1365      C1366   1.397   1_655  A
C1365      C1370   1.390       .  A
C1365      H1372   1.084       .  S
C1367      C1368   1.403       .  A
C1367      F1374   1.357       .  S
C1368      C1369   1.402       .  A
C1368      H1373   1.083       .  S
C1370      F1371   1.358       .  S
C1375      C1376   1.404       .  A
C1375      C1380   1.402       .  A
C1375      H1382   1.083       .  S
C1377      C1378   1.390       .  A
C1377      F1384   1.358       .  S
C1378      H1383   1.084       .  S
C1379      C1380   1.405       .  A
C1380      F1381   1.357       .  S
C1385      C1390   1.387       .  A
C1385      H1392   1.083       .  S
C1386      C1387   1.410       .  A
C1387      C1388   1.410       .  A
C1387      F1394   1.357       .  S
C1388      H1393   1.083       .  S
C1389      C1390   1.402       .  A
C1390      F1391   1.358       .  S
C1395      C1396   1.400       .  A
C1395      C1400   1.402       .  A
C1395      H1402   1.083       .  S
C1396      C1397   1.402       .  A
C1397      C1398   1.397       .  A
C1397      F1404   1.358       .  S
C1398      C1399   1.407       .  A
C1398      H1403   1.083       .  S
C1399      C1400   1.414       .  A
C1400      F1401   1.357       .  S
C1405      C1410   1.408       .  A
C1405      H1412   1.083       .  S
C1406      C1407   1.398       .  A
C1407      C1408   1.390       .  A
C1407      F1414   1.358       .  S
C1408      H1413   1.083       .  S
C1409      C1410   1.407       .  A
C1410      F1411   1.357       .  S
C1415      C1416   1.400       .  A
C1415      C1420   1.394       .  A
C1415      H1422   1.084       .  S
C1416      C1417   1.404       .  A
C1417      C1418   1.403       .  A
C1417      F1424   1.357       .  S
C1418      C1419   1.409       .  A
C1418      H1423   1.083       .  S
C1419      C1420   1.408       .  A
C1420      F1421   1.357       .  S
