geometry optimzed in LAMMPS
_audit_creation_date              2020-11-30 
_audit_creation_method            'lammps2cif' 
_symmetry_space_group_name_H-M    'P1' 
_symmetry_Int_Tables_number       1 
_symmetry_cell_setting            triclinic 
loop_ 
_symmetry_equiv_pos_as_xyz 
  x,y,z 
_cell_length_a                    54.49682358 
_cell_length_b                    24.11471682389422 
_cell_length_c                    36.10641889869073 
_cell_angle_alpha                 85.88900742261481 
_cell_angle_beta                  89.75547354316573 
_cell_angle_gamma                 87.39625064324329 
loop_ 
_atom_site_label 
_atom_site_type_symbol 
_atom_site_fract_x 
_atom_site_fract_y 
_atom_site_fract_z 
_atom_site_charge 
C1          C  0.99400432  0.84287248  0.17710682     0.86500
C2          C  0.98221465  0.83481946  0.13903373    -0.53700
C3          C  0.97135782  0.78514078  0.13662659     0.09400
C4          C  0.97348433  0.74719741  0.17267801     0.20400
C5          C  0.97301088  0.83271800  0.20498744    -0.54500
C6          C  0.96209215  0.78312796  0.20244838     0.09500
C7          C  0.01181476  0.79162966  0.18309519    -0.54000
C8          C  0.00111657  0.74189112  0.18128264     0.10100
H9          H  0.98229891  0.86463903  0.11528312     0.14600
H10         H  0.96530027  0.70617900  0.17108791     0.00300
H11         H  0.96680342  0.86296990  0.22426682     0.14900
H12         H  0.03144737  0.79447156  0.18711810     0.14700
C13         C  0.50278834  0.33698950  0.68983472     0.86500
C14         C  0.48902095  0.28273827  0.68840851    -0.53700
C15         C  0.50364024  0.23721567  0.68111429     0.09400
C16         C  0.53094539  0.24930420  0.67664180     0.20400
C17         C  0.52315552  0.32203122  0.71913344    -0.54500
C18         C  0.53776628  0.27649407  0.71205889     0.09500
C19         C  0.51714849  0.34246606  0.65290773    -0.54000
C20         C  0.53173231  0.29668591  0.64603618     0.10100
H21         H  0.46933001  0.28055768  0.69259385     0.14600
H22         H  0.54287628  0.21223541  0.67102277     0.00300
H23         H  0.52710518  0.34563265  0.74255382     0.14900
H24         H  0.51570889  0.37921750  0.63368249     0.14700
O25         O  0.62259648  0.20542925  0.39446994    -0.80900
O26         O  0.65446777  0.20095369  0.23168019    -0.65600
O27         O  0.65415635  0.22757115  0.33456254    -1.12200
C28         C  0.60044347  0.38112343  0.29519958     1.06000
O29         O  0.66150795  0.28952613  0.21704549    -0.78800
O30         O  0.66224651  0.36490836  0.26841772    -0.66400
Ni31       Ni  0.65058274  0.16937781  0.37214395     1.34900
C32         C  0.66696379  0.36730914  0.30259268     0.84700
O33         O  0.67722545  0.14701300  0.29093983    -0.79300
O34         O  0.67824896  0.12877155  0.35304137    -0.89600
C35         C  0.66109228  0.23931011  0.20826463     0.84300
O36         O  0.62907857  0.12497090  0.34665060    -0.67800
O37         O  0.61204981  0.38017501  0.26437482    -0.87100
C38         C  0.62070756  0.12624594  0.31389000     0.85100
C39         C  0.68512094  0.11881780  0.32025989     1.06700
H40         H  0.61510608  0.25930327  0.27244855     0.38500
O41         O  0.63087783  0.27281733  0.27872389    -1.09700
O42         O  0.65510671  0.34078711  0.32820867    -0.66400
Ni43       Ni  0.62956690  0.28707343  0.32991252     1.26300
O44         O  0.62748338  0.16100574  0.28804726    -0.66600
O45         O  0.60480694  0.34608111  0.32283788    -0.78900
C46         C  0.62155918  0.25484919  0.40457044     0.84500
O47         O  0.62776049  0.29512399  0.38237328    -0.66100
Ni48       Ni  0.63677668  0.33223397  0.24270857     1.27400
Ni49       Ni  0.65424254  0.21077447  0.28381031     1.26100
H50         H  0.66978381  0.24310398  0.33920686     0.39100
C51         C  0.70499112  0.20207064  0.93695623     0.86500
C52         C  0.71814307  0.25440918  0.92283876    -0.53700
C53         C  0.72305467  0.25847268  0.88560583     0.09400
C54         C  0.71427613  0.20863919  0.86540004     0.20400
C55         C  0.68213171  0.20116493  0.91234541    -0.54500
C56         C  0.68674153  0.20584923  0.87506895     0.09500
C57         C  0.72166297  0.15368253  0.92397007    -0.54000
C58         C  0.72619824  0.15657221  0.88662740     0.10100
H59         H  0.72315513  0.28595845  0.94110310     0.14600
H60         H  0.71831330  0.21123558  0.83519855     0.00300
H61         H  0.66362573  0.19895221  0.92348181     0.14900
H62         H  0.72888486  0.11864363  0.94157954     0.14700
O63         O  0.83801918  0.75897244  0.71450646    -0.80900
O64         O  0.87509609  0.76375548  0.87659038    -0.65600
O65         O  0.87048354  0.73863432  0.77406605    -1.12200
C66         C  0.81850938  0.59459450  0.81965302     1.06000
O67         O  0.88191351  0.67391580  0.89110781    -0.78800
O68         O  0.87731592  0.59384055  0.84320471    -0.66400
Ni69       Ni  0.86331008  0.79806463  0.73778931     1.34900
C70         C  0.88410673  0.59358640  0.80953736     0.84700
O71         O  0.89675738  0.80889127  0.81595105    -0.79300
O72         O  0.88857374  0.84147495  0.75723355    -0.89600
C73         C  0.88346027  0.72438029  0.89871545     0.84300
O74         O  0.83859593  0.83759276  0.76447199    -0.67800
O75         O  0.82764271  0.60090256  0.85145805    -0.87100
C76         C  0.83498172  0.84193243  0.79890741     0.85100
C77         C  0.90046805  0.84223527  0.78765559     1.06700
H78         H  0.83316365  0.71603797  0.83731335     0.38500
O79         O  0.84883228  0.69821617  0.83161354    -1.09700
O80         O  0.87505041  0.62690431  0.78375459    -0.66400
Ni81       Ni  0.84769417  0.68067626  0.78091097     1.26300
O82         O  0.84697944  0.81226623  0.82390797    -0.66600
O83         O  0.82498845  0.62166899  0.78970415    -0.78900
C84         C  0.83908085  0.70867602  0.70560741     0.84500
O85         O  0.84647372  0.66967867  0.72896811    -0.66100
Ni86       Ni  0.85460765  0.63968525  0.86929988     1.27400
Ni87       Ni  0.87264142  0.75397203  0.82483446     1.26100
H88         H  0.88625108  0.72248126  0.76718060     0.39100
C89         C  0.79928398  0.69894515  0.43164237     0.86500
C90         C  0.78382341  0.65347233  0.41751684    -0.53700
C91         C  0.77870828  0.65924031  0.38042910     0.09400
C92         C  0.78981173  0.71099072  0.36020669     0.20400
C93         C  0.82229783  0.69880779  0.40647043    -0.54500
C94         C  0.81752177  0.70493920  0.36920259     0.09500
C95         C  0.78552425  0.75427682  0.41891818    -0.54000
C96         C  0.78034256  0.76076732  0.38171783     0.10100
H97         H  0.77753087  0.61897059  0.43556517     0.14600
H98         H  0.78556823  0.71620686  0.33014563     0.00300
H99         H  0.84102190  0.69688957  0.41636173     0.14900
H100        H  0.78039979  0.78593115  0.43780452     0.14700
C101        C  0.50353478  0.82300539  0.29071752     0.86500
C102        C  0.51303426  0.76226956  0.29846289    -0.53700
C103        C  0.49536903  0.72608999  0.30857421     0.09400
C104        C  0.46923138  0.75357716  0.30996307     0.20400
C105        C  0.48378518  0.81872374  0.26091051    -0.54500
C106        C  0.46517006  0.78403370  0.27102759     0.09500
C107        C  0.48933558  0.83663661  0.32598194    -0.54000
C108        C  0.47146228  0.80090845  0.33599999     0.10100
H109        H  0.53169794  0.74672842  0.29437656     0.14600
H110        H  0.45482520  0.72479066  0.31925024     0.00300
H111        H  0.48420034  0.84266035  0.23430794     0.14900
H112        H  0.49332815  0.87155350  0.34205881     0.14700
C113        C  0.00656339  0.17659512  0.78912277     0.86500
C114        C  0.02733284  0.18205097  0.76026846    -0.53700
C115        C  0.04099168  0.22790963  0.76275531     0.09400
C116        C  0.03255777  0.26477326  0.79398500     0.20400
C117        C  0.01921617  0.17958863  0.82686882    -0.54500
C118        C  0.03290955  0.22509501  0.82934255     0.09500
C119        C  0.99170472  0.23281523  0.78371760    -0.54000
C120        C  0.00525695  0.27868656  0.78566553     0.10100
H121        H  0.03135691  0.15117330  0.74038411     0.14600
H122        H  0.04356493  0.30204534  0.79622940     0.00300
H123        H  0.01748427  0.14829338  0.84979830     0.14900
H124        H  0.97213540  0.23806673  0.77938397     0.14700
O125        O  0.12513427  0.33970363  0.07094285    -0.80900
O126        O  0.16297116  0.33922756  0.23803206    -0.65600
O127        O  0.15436460  0.31544168  0.13497582    -1.12200
C128        C  0.10370865  0.17113289  0.18307871     1.06000
O129        O  0.16920296  0.24954209  0.25337458    -0.78800
O130        O  0.16708764  0.17745310  0.19993639    -0.66400
Ni131      Ni  0.14667406  0.37854768  0.10092397     1.34900
C132        C  0.16902399  0.17462612  0.16506486     0.84700
O133        O  0.18362803  0.38204575  0.17622786    -0.79300
O134        O  0.16793100  0.42676633  0.12481197    -0.89600
C135        C  0.17020791  0.29991572  0.26124806     0.84300
O136        O  0.11918426  0.40333508  0.12855422    -0.67800
O137        O  0.11719917  0.17006718  0.21190902    -0.87100
C138        C  0.11804588  0.41171920  0.16278415     0.85100
C139        C  0.18276830  0.42281734  0.15201655     1.06700
H140        H  0.11979879  0.29291061  0.20402388     0.38500
O141        O  0.13468687  0.27504941  0.19513090    -1.09700
O142        O  0.15501684  0.20273887  0.14188356    -0.66400
Ni143      Ni  0.12972143  0.26107213  0.14420723     1.26300
O144        O  0.13348948  0.38954253  0.18668291    -0.66600
O145        O  0.10561802  0.20649463  0.15532129    -0.78900
C146        C  0.12012770  0.28956460  0.06721445     0.84500
O147        O  0.12420653  0.25120131  0.09271420    -0.66100
Ni148      Ni  0.14304097  0.21317109  0.22996230     1.27400
Ni149      Ni  0.15884208  0.32944142  0.18621968     1.26100
H150        H  0.16928423  0.29756513  0.12630198     0.39100
C151        C  0.20422744  0.31311543  0.53529071     0.86500
C152        C  0.22021678  0.25947210  0.54375630    -0.53700
C153        C  0.22594054  0.24780303  0.58041342     0.09400
C154        C  0.21452946  0.29077864  0.60591647     0.20400
C155        C  0.18147919  0.30472590  0.56065745    -0.54500
C156        C  0.18702636  0.29303080  0.59725209     0.09500
C157        C  0.21777991  0.35900074  0.55331222    -0.54000
C158        C  0.22329497  0.34775046  0.59024865     0.10100
H159        H  0.22586069  0.23207557  0.52238994     0.14600
H160        H  0.21826422  0.28122121  0.63591562     0.00300
H161        H  0.16252095  0.30762895  0.55182236     0.14900
H162        H  0.22219800  0.39775448  0.53809754     0.14700
O163        O  0.38303092  0.75531182  0.58915595    -0.80900
O164        O  0.33940183  0.73554224  0.74894912    -0.65600
O165        O  0.34789810  0.76788061  0.64447590    -1.12200
C166        C  0.39933295  0.90686581  0.68696066     1.06000
O167        O  0.33166587  0.82514706  0.75205000    -0.78800
O168        O  0.34136719  0.91121712  0.70513515    -0.66400
Ni169      Ni  0.35846408  0.71130845  0.61338259     1.34900
C170        C  0.33422215  0.91467254  0.67178304     0.84700
O171        O  0.32088342  0.69038872  0.68903463    -0.79300
O172        O  0.33464862  0.66210167  0.63449762    -0.89600
C173        C  0.33230298  0.77623889  0.76735403     0.84300
O174        O  0.38361175  0.67696666  0.64478299    -0.67800
O175        O  0.39000559  0.89598572  0.71905705    -0.87100
C176        C  0.38486640  0.66790873  0.67973548     0.85100
C177        C  0.32116484  0.65640607  0.66333970     1.06700
H178        H  0.38283545  0.78600724  0.70827138     0.38500
O179        O  0.36726494  0.80416596  0.70093563    -1.09700
O180        O  0.34228665  0.88080806  0.64846981    -0.66400
Ni181      Ni  0.36995863  0.82687129  0.64978549     1.26300
O182        O  0.37003622  0.69086756  0.70190027    -0.66600
O183        O  0.39243072  0.88496707  0.65762394    -0.78900
C184        C  0.38091360  0.80579817  0.57669504     0.84500
O185        O  0.37291846  0.84337983  0.59716593    -0.66100
Ni186      Ni  0.36105522  0.85896239  0.73507391     1.27400
Ni187      Ni  0.34378795  0.74779850  0.69631778     1.26100
H188        H  0.33237563  0.78354907  0.63484303     0.39100
C189        C  0.29646897  0.79354371  0.04116201     0.86500
C190        C  0.28093435  0.84621539  0.04923244    -0.53700
C191        C  0.27699091  0.85332707  0.08620175     0.09400
C192        C  0.28889893  0.80553542  0.11197650     0.20400
C193        C  0.32000395  0.79621431  0.06392192    -0.54500
C194        C  0.31633682  0.80240839  0.10092086     0.09500
C195        C  0.28244903  0.74642437  0.06152595    -0.54000
C196        C  0.27831462  0.75282679  0.09811927     0.10100
H197        H  0.27336604  0.87503405  0.02727965     0.14600
H198        H  0.28599312  0.80925150  0.14204925     0.00300
H199        H  0.33818212  0.79266526  0.05162569     0.14900
H200        H  0.27476768  0.71181113  0.04896494     0.14700
C201        C  0.32498953  0.76899550  0.80659168    -0.12000
C202        C  0.33888830  0.73480443  0.83283311     0.03500
C203        C  0.33395148  0.73778815  0.87073125    -0.12500
C204        C  0.31524735  0.77416597  0.88285123     0.18400
C205        C  0.30078581  0.80656966  0.85663050    -0.09500
C206        C  0.30579003  0.80397672  0.81889668    -0.02500
H207        H  0.34508861  0.71261435  0.89089656     0.04900
C208        C  0.31103244  0.77800299  0.92293630     0.20300
H209        H  0.29497445  0.83050761  0.79903313     0.10100
C210        C  0.31753918  0.82565957  0.93986120    -0.15900
C211        C  0.31321602  0.83098941  0.97773353     0.03100
C212        C  0.30175758  0.78810345  0.99963168    -0.11200
C213        C  0.29607366  0.73963812  0.98200907    -0.01200
C214        C  0.30045238  0.73468017  0.94431075    -0.06400
H215        H  0.32606757  0.85892724  0.92344286     0.06100
H216        H  0.28852266  0.70406843  0.99667031     0.09500
Br217      Br  0.27405363  0.85498773  0.87105157    -0.06100
Br218      Br  0.36616042  0.68743548  0.81893764    -0.03000
Br219      Br  0.32396816  0.89784005  0.99740684    -0.00200
Br220      Br  0.29105291  0.66811957  0.92291738    -0.04600
C221        C  0.23419576  0.38987914  0.61315213    -0.12000
C222        C  0.25298018  0.37626013  0.63962264     0.03500
C223        C  0.26375575  0.41857453  0.65785250    -0.12500
C224        C  0.25677141  0.47500373  0.64970459     0.18400
C225        C  0.23745829  0.48834725  0.62430475    -0.09500
C226        C  0.22620866  0.44609969  0.60690621    -0.02500
H227        H  0.27905415  0.40771641  0.67645164     0.04900
C228        C  0.27367098  0.51832024  0.66001481     0.20300
H229        H  0.21168642  0.45771696  0.58708813     0.10100
C230        C  0.29757627  0.51506474  0.64587063    -0.15900
C231        C  0.31362475  0.55772453  0.64926166     0.03100
C232        C  0.30566508  0.60685536  0.66596969    -0.11200
C233        C  0.28239044  0.60828313  0.68310759    -0.01200
C234        C  0.26654841  0.56396565  0.68074809    -0.06400
H235        H  0.30368789  0.47938574  0.63107775     0.06100
H236        H  0.27625468  0.64433604  0.69745988     0.09500
Br237      Br  0.22781091  0.56377338  0.60827497    -0.06100
Br238      Br  0.26746877  0.30246657  0.64844542    -0.03000
Br239      Br  0.34649085  0.54441427  0.63116744    -0.00200
Br240      Br  0.23585900  0.56664275  0.70691050    -0.04600
C241        C  0.24033402  0.19640214  0.59432518    -0.12000
C242        C  0.26251542  0.17878212  0.57738412     0.03500
C243        C  0.27506474  0.12963903  0.59068993    -0.12500
C244        C  0.26619033  0.09685648  0.62093027     0.18400
C245        C  0.24432952  0.11461200  0.63848493    -0.09500
C246        C  0.23162882  0.16395568  0.62513192    -0.02500
H247        H  0.29229849  0.11747869  0.57782496     0.04900
C248        C  0.28137610  0.04717343  0.63512646     0.20300
H249        H  0.21473538  0.17662657  0.63866618     0.10100
C250        C  0.29279455  0.04786256  0.66967795    -0.15900
C251        C  0.30982666  0.00561695  0.68229964     0.03100
C252        C  0.31578332  0.96041211  0.66001061    -0.11200
C253        C  0.30392242  0.95968787  0.62549333    -0.01200
C254        C  0.28698142  0.00243089  0.61301013    -0.06400
H255        H  0.28906755  0.08279592  0.68646486     0.06100
H256        H  0.30789796  0.92587543  0.60788987     0.09500
Br257      Br  0.23081938  0.07230843  0.68010082    -0.06100
Br258      Br  0.27818063  0.22155297  0.53813656    -0.03000
Br259      Br  0.32485230  0.01610582  0.72932471    -0.00200
Br260      Br  0.27183024  0.99779608  0.56553956    -0.04600
C261        C  0.19977592  0.32520250  0.49301189    -0.12000
C262        C  0.21972867  0.33310397  0.46785422     0.03500
C263        C  0.21583005  0.33763550  0.42934329    -0.12500
C264        C  0.19230179  0.33527651  0.41437860     0.18400
C265        C  0.17224964  0.32980039  0.43879808    -0.09500
C266        C  0.17598899  0.32535574  0.47734049    -0.02500
H267        H  0.23144277  0.34150447  0.41080080     0.04900
C268        C  0.18943400  0.33093740  0.37370755     0.20300
H269        H  0.15988703  0.31991254  0.49423925     0.10100
C270        C  0.19838537  0.28228896  0.35833831    -0.15900
C271        C  0.19392395  0.27296020  0.32118081     0.03100
C272        C  0.17954552  0.31236139  0.29852456    -0.11200
C273        C  0.17230829  0.36313630  0.31328366    -0.01200
C274        C  0.17735439  0.37279400  0.35035327    -0.06400
H275        H  0.20854889  0.25069955  0.37566147     0.06100
H276        H  0.16197091  0.39486684  0.29635759     0.09500
Br277      Br  0.13947650  0.32296515  0.42085762    -0.06100
Br278      Br  0.25321822  0.33649594  0.48333111    -0.03000
Br279      Br  0.20889464  0.20623133  0.30348211    -0.00200
Br280      Br  0.16761814  0.44374149  0.36781633    -0.04600
C281        C  0.26258690  0.71408809  0.11975064    -0.12000
C282        C  0.23834944  0.70726693  0.10797880     0.03500
C283        C  0.22573254  0.66119669  0.12166956    -0.12500
C284        C  0.23663569  0.62171178  0.14765323     0.18400
C285        C  0.26012491  0.63091044  0.16171400    -0.09500
C286        C  0.27296734  0.67700838  0.14765205    -0.02500
H287        H  0.20773911  0.65472265  0.11053175     0.04900
C288        C  0.22429951  0.56860580  0.15559009     0.20300
H289        H  0.29156837  0.68206198  0.15690195     0.10100
C290        C  0.23566598  0.51924377  0.14397401    -0.15900
C291        C  0.22283337  0.47018395  0.14422498     0.03100
C292        C  0.19829686  0.47008942  0.15641844    -0.11200
C293        C  0.18721638  0.51867036  0.16922125    -0.01200
C294        C  0.19994328  0.56770022  0.16889831    -0.06400
H295        H  0.25412666  0.51966221  0.13272736     0.06100
H296        H  0.16824751  0.51895379  0.17832585     0.09500
Br297      Br  0.27556514  0.58085138  0.19915497    -0.06100
Br298      Br  0.22205061  0.75836035  0.07176066    -0.03000
Br299      Br  0.23873751  0.40595956  0.12469933    -0.00200
Br300      Br  0.18287210  0.63265975  0.18565765    -0.04600
C301        C  0.18758833  0.13454148  0.15075439    -0.12000
C302        C  0.21071138  0.12291957  0.16789565     0.03500
C303        C  0.22631105  0.07980802  0.15610514    -0.12500
C304        C  0.21939007  0.04813689  0.12713826     0.18400
C305        C  0.19689247  0.06120376  0.10892526    -0.09500
C306        C  0.18136359  0.10443845  0.12048625    -0.02500
H307        H  0.24379742  0.07049530  0.16986440     0.04900
C308        C  0.23509903  0.99953979  0.11769684     0.20300
H309        H  0.16391709  0.11310670  0.10659497     0.10100
C310        C  0.23217241  0.94836634  0.13763920    -0.15900
C311        C  0.24550674  0.90028769  0.12838185     0.03100
C312        C  0.26274557  0.90315951  0.09883978    -0.11200
C313        C  0.26589723  0.95529777  0.07948678    -0.01200
C314        C  0.25210071  0.00292088  0.08840210    -0.06400
H315        H  0.21879933  0.94552911  0.15992050     0.06100
H316        H  0.27906759  0.95912261  0.05700661     0.09500
Br317      Br  0.18613680  0.01924142  0.06933317    -0.06100
Br318      Br  0.22251866  0.16599503  0.20618946    -0.03000
Br319      Br  0.23703251  0.83264734  0.15554586    -0.00200
Br320      Br  0.25654935  0.07146177  0.05933436    -0.04600
C321        C  0.16794907  0.28297608  0.62575645    -0.12000
C322        C  0.15587940  0.32728684  0.64279566     0.03500
C323        C  0.13630575  0.31685064  0.66711599    -0.12500
C324        C  0.12874596  0.26246918  0.67508868     0.18400
C325        C  0.14159570  0.21787561  0.65940331    -0.09500
C326        C  0.16097046  0.22840730  0.63469159    -0.02500
H327        H  0.12662394  0.35134028  0.67929129     0.04900
C328        C  0.10648482  0.25359861  0.69785855     0.20300
H329        H  0.17032443  0.19405715  0.62191136     0.10100
C330        C  0.08450044  0.24313695  0.68015516    -0.15900
C331        C  0.06282783  0.23590051  0.70049629     0.03100
C332        C  0.06301677  0.23866854  0.73944758    -0.11200
C333        C  0.08494815  0.25063275  0.75690716    -0.01200
C334        C  0.10660225  0.25773428  0.73649492    -0.06400
H335        H  0.08416303  0.24132160  0.65026052     0.06100
H336        H  0.08539469  0.25341331  0.78668331     0.09500
Br337      Br  0.13338883  0.14216375  0.67126018    -0.06100
Br338      Br  0.16520964  0.40263096  0.63319810    -0.03000
Br339      Br  0.03336263  0.22658030  0.67311446    -0.00200
Br340      Br  0.13607892  0.27119453  0.76256373    -0.04600
C341        C  0.04637874  0.23504904  0.86352622    -0.12000
C342        C  0.06843821  0.20500757  0.87345297     0.03500
C343        C  0.07989803  0.21314854  0.90714984    -0.12500
C344        C  0.06973260  0.25118306  0.93119334     0.18400
C345        C  0.04802761  0.28220446  0.92083862    -0.09500
C346        C  0.03637373  0.27345062  0.88741822    -0.02500
H347        H  0.09684393  0.18986898  0.91461036     0.04900
C348        C  0.08262293  0.25947559  0.96618963     0.20300
H349        H  0.01924327  0.29603669  0.88040632     0.10100
C350        C  0.10131239  0.29734544  0.96550450    -0.15900
C351        C  0.11412722  0.30647432  0.99779733     0.03100
C352        C  0.10836390  0.27705945  0.03189463    -0.11200
C353        C  0.08989349  0.23810811  0.03228856    -0.01200
C354        C  0.07695659  0.22947503  0.99980288    -0.06400
H355        H  0.10595198  0.32000074  0.93959986     0.06100
H356        H  0.08502800  0.21547483  0.05808502     0.09500
Br357      Br  0.03387399  0.33732498  0.95123754    -0.06100
Br358      Br  0.08379333  0.15310531  0.84180220    -0.03000
Br359      Br  0.13996556  0.35816698  0.99269358    -0.00200
Br360      Br  0.05142841  0.17715217  0.00247652    -0.04600
C361        C  0.44202196  0.78450004  0.24845933    -0.12000
C362        C  0.42824779  0.73694779  0.24403309     0.03500
C363        C  0.40722231  0.74126195  0.22145977    -0.12500
C364        C  0.39976269  0.79163518  0.20190625     0.18400
C365        C  0.41320564  0.83911338  0.20667623    -0.09500
C366        C  0.43362496  0.83539997  0.23013523    -0.02500
H367        H  0.39689473  0.70451669  0.21840399     0.04900
C368        C  0.37824091  0.79362491  0.17638812     0.20300
H369        H  0.44318458  0.87303185  0.23359478     0.10100
C370        C  0.35833264  0.83154690  0.18133492    -0.15900
C371        C  0.33833936  0.83633681  0.15678650     0.03100
C372        C  0.33725342  0.80037986  0.12767651    -0.11200
C373        C  0.35701571  0.76177581  0.12324451    -0.01200
C374        C  0.37749221  0.75891475  0.14663349    -0.06400
H375        H  0.35867108  0.85880937  0.20388240     0.06100
H376        H  0.35673168  0.73384284  0.10107667     0.09500
Br377      Br  0.40573918  0.90962846  0.18002329    -0.06100
Br378      Br  0.43744455  0.66379636  0.26504490    -0.03000
Br379      Br  0.31478615  0.89679328  0.16231340    -0.00200
Br380      Br  0.40454689  0.70936605  0.13487757    -0.04600
C381        C  0.38987209  0.81896229  0.53864842    -0.12000
C382        C  0.38402838  0.78449306  0.51025787     0.03500
C383        C  0.39712008  0.78723246  0.47701009    -0.12500
C384        C  0.41618736  0.82381093  0.47127122     0.18400
C385        C  0.42078559  0.86155899  0.49826403    -0.09500
C386        C  0.40757692  0.85896385  0.53179898    -0.02500
H387        H  0.39300702  0.75916702  0.45596369     0.04900
C388        C  0.43142941  0.81943919  0.43752469     0.20300
H389        H  0.41226197  0.88561554  0.55337230     0.10100
C390        C  0.42885900  0.86061276  0.40823623    -0.15900
C391        C  0.44125589  0.85461805  0.37461520     0.03100
C392        C  0.45656896  0.80684393  0.36998432    -0.11200
C393        C  0.45888773  0.76542097  0.39912551    -0.01200
C394        C  0.44661917  0.77150547  0.43279403    -0.06400
H395        H  0.41669221  0.89681420  0.41123453     0.06100
H396        H  0.47055106  0.72856979  0.39588471     0.09500
Br397      Br  0.44612437  0.91400096  0.49177442    -0.06100
Br398      Br  0.35872055  0.73155612  0.51577346    -0.03000
Br399      Br  0.43522713  0.91079647  0.33505306    -0.00200
Br400      Br  0.45150617  0.71367171  0.47178111    -0.04600
C401        C  0.91939109  0.88457950  0.78943012    -0.12000
C402        C  0.92542045  0.90883595  0.82263971     0.03500
C403        C  0.94140126  0.95282907  0.82152782    -0.12500
C404        C  0.95168197  0.97325259  0.78795118     0.18400
C405        C  0.94664313  0.94783626  0.75521457    -0.09500
C406        C  0.93066213  0.90404276  0.75611850    -0.02500
H407        H  0.94513870  0.97262128  0.84679612     0.04900
C408        C  0.96562122  0.02441494  0.78700904     0.20300
H409        H  0.92666467  0.88585140  0.73036626     0.10100
C410        C  0.99097412  0.02112105  0.79301623    -0.15900
C411        C  0.00440548  0.06939403  0.79284190     0.03100
C412        C  0.99236768  0.12297947  0.78701376    -0.11200
C413        C  0.96679945  0.12495195  0.77996309    -0.01200
C414        C  0.95359480  0.07668886  0.78012014    -0.06400
H415        H  0.00036636  0.98070038  0.79789824     0.06100
H416        H  0.95631405  0.16331526  0.77422888     0.09500
Br417      Br  0.96039182  0.97332639  0.70840998    -0.06100
Br418      Br  0.91123584  0.88786404  0.86995960    -0.03000
Br419      Br  0.03917161  0.05801146  0.80073763    -0.00200
Br420      Br  0.91885756  0.08421300  0.77099182    -0.04600
C421        C  0.90341166  0.55201011  0.80012971    -0.12000
C422        C  0.90062726  0.49477841  0.80909425     0.03500
C423        C  0.91986100  0.45643374  0.80238204    -0.12500
C424        C  0.94207307  0.47409718  0.78692241     0.18400
C425        C  0.94463137  0.53099815  0.77678464    -0.09500
C426        C  0.92527776  0.56952607  0.78323055    -0.02500
H427        H  0.91761401  0.41258433  0.80970833     0.04900
C428        C  0.96226485  0.43190315  0.78269769     0.20300
H429        H  0.92755923  0.61337777  0.77601668     0.10100
C430        C  0.96229538  0.39949686  0.75202456    -0.15900
C431        C  0.97795898  0.35201152  0.75094503     0.03100
C432        C  0.99359956  0.33571521  0.78127500    -0.11200
C433        C  0.99515931  0.37111399  0.81026337    -0.01200
C434        C  0.97951105  0.41875127  0.81127774    -0.06400
H435        H  0.94940048  0.40990435  0.72956899     0.06100
H436        H  0.00743039  0.36002656  0.83328491     0.09500
Br437      Br  0.97433470  0.55764598  0.75484263    -0.06100
Br438      Br  0.87062480  0.46669256  0.82938606    -0.03000
Br439      Br  0.97712391  0.31051092  0.70758231    -0.00200
Br440      Br  0.98086813  0.46228054  0.85357538    -0.04600
C441        C  0.83040371  0.69694232  0.66783876    -0.12000
C442        C  0.83579609  0.64639784  0.65106758     0.03500
C443        C  0.82858477  0.64083809  0.61420226    -0.12500
C444        C  0.81676046  0.68525291  0.59282526     0.18400
C445        C  0.81054180  0.73465333  0.61010722    -0.09500
C446        C  0.81718095  0.73980246  0.64697326    -0.02500
H447        H  0.83294277  0.60204446  0.60174659     0.04900
C448        C  0.81212143  0.68108714  0.55233407     0.20300
H449        H  0.81243449  0.77873007  0.65903068     0.10100
C450        C  0.78830434  0.69144068  0.53806257    -0.15900
C451        C  0.78381478  0.69621097  0.49968691     0.03100
C452        C  0.80349244  0.69061366  0.47403816    -0.11200
C453        C  0.82690495  0.67454480  0.48895610    -0.01200
C454        C  0.83133625  0.67015358  0.52724644    -0.06400
H455        H  0.77307795  0.69722950  0.55699638     0.06100
H456        H  0.84225169  0.66448521  0.47146610     0.09500
Br457      Br  0.79442588  0.79867450  0.58444383    -0.06100
Br458      Br  0.85424528  0.58451419  0.67541048    -0.03000
Br459      Br  0.75013625  0.71034463  0.48480256    -0.00200
Br460      Br  0.86448518  0.65110149  0.54299845    -0.04600
C461        C  0.74007303  0.11114712  0.86876151    -0.12000
C462        C  0.73304123  0.05543159  0.87387940     0.03500
C463        C  0.74793985  0.01250955  0.86040309    -0.12500
C464        C  0.76989520  0.02394024  0.84163279     0.18400
C465        C  0.77620832  0.07979661  0.83456384    -0.09500
C466        C  0.76129830  0.12293309  0.84806743    -0.02500
H467        H  0.74261989  0.96984911  0.86524545     0.04900
C468        C  0.78632805  0.97684477  0.83100742     0.20300
H469        H  0.76671241  0.16555697  0.84345039     0.10100
C470        C  0.78028258  0.94696443  0.80064983    -0.15900
C471        C  0.79546592  0.90216395  0.79009052     0.03100
C472        C  0.81704846  0.88588666  0.81051020    -0.11200
C473        C  0.82259816  0.91509460  0.84156784    -0.01200
C474        C  0.80756579  0.96021999  0.85173698    -0.06400
H475        H  0.76373673  0.95880716  0.78494663     0.06100
H476        H  0.83910045  0.90376046  0.85750367     0.09500
Br477      Br  0.80517004  0.09868948  0.80698160    -0.06100
Br478      Br  0.70288181  0.03573706  0.89813133    -0.03000
Br479      Br  0.78517235  0.86378636  0.74843371    -0.00200
Br480      Br  0.81669950  0.99792865  0.89429227    -0.04600
C481        C  0.80015952  0.55150337  0.81840472    -0.12000
C482        C  0.78037953  0.55017366  0.84368630     0.03500
C483        C  0.76707981  0.50207226  0.84953473    -0.12500
C484        C  0.77316422  0.45469929  0.83049206     0.18400
C485        C  0.79170661  0.45722191  0.80320744    -0.09500
C486        C  0.80501924  0.50558932  0.79719997    -0.02500
H487        H  0.75261599  0.50075589  0.87022095     0.04900
C488        C  0.76157310  0.40190222  0.84227054     0.20300
H489        H  0.82029093  0.50581695  0.77788473     0.10100
C490        C  0.74137854  0.38487977  0.82278280    -0.15900
C491        C  0.72885850  0.33751240  0.83548128     0.03100
C492        C  0.73674036  0.30594507  0.86819721    -0.11200
C493        C  0.75747263  0.32259163  0.88687865    -0.01200
C494        C  0.76968891  0.37011344  0.87442477    -0.06400
H495        H  0.73485779  0.40959802  0.79825318     0.06100
H496        H  0.76399277  0.29898433  0.91184655     0.09500
Br497      Br  0.80068750  0.39398043  0.77595963    -0.06100
Br498      Br  0.77137125  0.61267499  0.87170768    -0.03000
Br499      Br  0.70001056  0.32211575  0.80863146    -0.00200
Br500      Br  0.79706169  0.39089228  0.90284319    -0.04600
C501        C  0.52270680  0.86677139  0.28121678    -0.12000
C502        C  0.51538440  0.92362944  0.27255129     0.03500
C503        C  0.53272893  0.96469911  0.27140567    -0.12500
C504        C  0.55745408  0.95107485  0.27894930     0.18400
C505        C  0.56527768  0.89506687  0.28514426    -0.09500
C506        C  0.54814934  0.85362583  0.28597011    -0.02500
H507        H  0.52664292  0.00806097  0.26687546     0.04900
C508        C  0.57371167  0.99593030  0.28687872     0.20300
H509        H  0.55526887  0.81193247  0.29293365     0.10100
C510        C  0.57552439  0.00985618  0.32365693    -0.15900
C511        C  0.59007845  0.05283112  0.33312006     0.03100
C512        C  0.60324175  0.08337127  0.30511739    -0.11200
C513        C  0.60104416  0.06939866  0.26804559    -0.01200
C514        C  0.58657344  0.02583238  0.25888390    -0.06400
H515        H  0.56542351  0.98701883  0.34522764     0.06100
H516        H  0.61115744  0.09134031  0.24615494     0.09500
Br517      Br  0.59902996  0.87362875  0.29563938    -0.06100
Br518      Br  0.48187823  0.95028351  0.26528669    -0.03000
Br519      Br  0.59019881  0.06735933  0.38482321    -0.00200
Br520      Br  0.58547589  0.00716299  0.20821947    -0.04600
C521        C  0.58143095  0.42649610  0.29898335    -0.12000
C522        C  0.55862984  0.41750867  0.31675076     0.03500
C523        C  0.54143108  0.46213010  0.31979212    -0.12500
C524        C  0.54655710  0.51590672  0.30537822     0.18400
C525        C  0.56924628  0.52494382  0.28770319    -0.09500
C526        C  0.58631283  0.48046420  0.28433191    -0.02500
H527        H  0.52397240  0.45483961  0.33331549     0.04900
C528        C  0.52856025  0.56294986  0.30954443     0.20300
H529        H  0.60372637  0.48834868  0.27081493     0.10100
C530        C  0.52929162  0.59226184  0.34165225    -0.15900
C531        C  0.51650752  0.64375254  0.34331204     0.03100
C532        C  0.50205489  0.66582633  0.31297219    -0.11200
C533        C  0.50026346  0.63483694  0.28175393    -0.01200
C534        C  0.51337964  0.58384706  0.27981584    -0.06400
H535        H  0.54129826  0.57707257  0.36435390     0.06100
H536        H  0.49053007  0.65273633  0.25737178     0.09500
Br537      Br  0.57790923  0.59786750  0.26863494    -0.06100
Br538      Br  0.54940240  0.34489570  0.33544804    -0.03000
Br539      Br  0.52202575  0.68581360  0.38538289    -0.00200
Br540      Br  0.51220248  0.54730784  0.23444949    -0.04600
C541        C  0.66970024  0.22663989  0.17041635    -0.12000
C542        C  0.66248898  0.17975389  0.15234698     0.03500
C543        C  0.66950151  0.17344568  0.11538952    -0.12500
C544        C  0.68366063  0.21291547  0.09579893     0.18400
C545        C  0.69149998  0.25859719  0.11399301    -0.09500
C546        C  0.68457158  0.26506504  0.15079176    -0.02500
H547        H  0.66327131  0.13833128  0.10145952     0.04900
C548        C  0.68879328  0.20788861  0.05579776     0.20300
H549        H  0.69068345  0.30098669  0.16395193     0.10100
C550        C  0.67756169  0.24652929  0.02974445    -0.15900
C551        C  0.68242016  0.24480619  0.99176641     0.03100
C552        C  0.69874186  0.20276559  0.97859939    -0.11200
C553        C  0.70970877  0.16363373  0.00534740    -0.01200
C554        C  0.70485941  0.16600395  0.04335880    -0.06400
H555        H  0.66509750  0.27891128  0.03916056     0.06100
H556        H  0.72267991  0.13149501  0.99770070     0.09500
Br557      Br  0.71174313  0.31334550  0.08969986    -0.06100
Br558      Br  0.64169573  0.12479324  0.17501306    -0.03000
Br559      Br  0.66625194  0.30278867  0.96010251    -0.00200
Br560      Br  0.72158205  0.11263926  0.07751375    -0.04600
C561        C  0.76617491  0.81083490  0.36486717    -0.12000
C562        C  0.77437141  0.84304558  0.33325837     0.03500
C563        C  0.76125661  0.89219900  0.32068779    -0.12500
C564        C  0.73989552  0.91010620  0.33885598     0.18400
C565        C  0.73106771  0.87693708  0.36926845    -0.09500
C566        C  0.74420113  0.82808427  0.38208316    -0.02500
H567        H  0.76828221  0.91776533  0.29747349     0.04900
C568        C  0.72854916  0.96619540  0.32868381     0.20300
H569        H  0.73734007  0.80369149  0.40596641     0.10100
C570        C  0.70930082  0.97311110  0.30282336    -0.15900
C571        C  0.69631278  0.02466672  0.29674939     0.03100
C572        C  0.70231108  0.06992419  0.31731806    -0.11200
C573        C  0.72249033  0.06344381  0.34153618    -0.01200
C574        C  0.73577026  0.01250001  0.34684872    -0.06400
H575        H  0.70375516  0.93781006  0.28844537     0.06100
H576        H  0.72734033  0.09763204  0.35756516     0.09500
Br577      Br  0.70158650  0.89798360  0.39496104    -0.06100
Br578      Br  0.80437217  0.82605379  0.30786182    -0.03000
Br579      Br  0.66908559  0.02917522  0.26296671    -0.00200
Br580      Br  0.76299264  0.00713553  0.38061318    -0.04600
C581        C  0.76492614  0.61644051  0.36249435    -0.12000
C582        C  0.74343941  0.62975757  0.34139809     0.03500
C583        C  0.72912314  0.58703541  0.33016675    -0.12500
C584        C  0.73593005  0.53094091  0.33940224     0.18400
C585        C  0.75800449  0.51755806  0.35863704    -0.09500
C586        C  0.77223985  0.56004653  0.37005079    -0.02500
H587        H  0.71215537  0.59762008  0.31524022     0.04900
C588        C  0.71907668  0.48709344  0.33084698     0.20300
H589        H  0.78882378  0.54896711  0.38584506     0.10100
C590        C  0.72204962  0.46027955  0.29788903    -0.15900
C591        C  0.70605082  0.41938079  0.28882344     0.03100
C592        C  0.68632578  0.40508221  0.31292469    -0.11200
C593        C  0.68406765  0.43082359  0.34660423    -0.01200
C594        C  0.70018846  0.47142997  0.35559301    -0.06400
H595        H  0.73692136  0.47122624  0.27913800     0.06100
H596        H  0.66923887  0.42062330  0.36560647     0.09500
Br597      Br  0.76873363  0.44177021  0.37137901    -0.06100
Br598      Br  0.73143069  0.70491585  0.32992666    -0.03000
Br599      Br  0.71302998  0.38329246  0.24393993    -0.00200
Br600      Br  0.69560938  0.50506673  0.40183054    -0.04600
C601        C  0.56018821  0.26055122  0.73386222    -0.12000
C602        C  0.55899742  0.24318824  0.77183165     0.03500
C603        C  0.58064325  0.23370150  0.79239870    -0.12500
C604        C  0.60364380  0.24286275  0.77595347     0.18400
C605        C  0.60484046  0.25958342  0.73780436    -0.09500
C606        C  0.58318423  0.26750004  0.71698130    -0.02500
H607        H  0.57952374  0.22025481  0.82161767     0.04900
C608        C  0.62591725  0.23587127  0.79950772     0.20300
H609        H  0.58423713  0.28146257  0.68786048     0.10100
C610        C  0.64369489  0.19347915  0.79336487    -0.15900
C611        C  0.66398101  0.18340025  0.81706479     0.03100
C612        C  0.66645359  0.21560883  0.84779735    -0.11200
C613        C  0.64887469  0.25861315  0.85337646    -0.01200
C614        C  0.62889953  0.26919042  0.82948885    -0.06400
H615        H  0.64147776  0.16736176  0.77052395     0.06100
H616        H  0.65083189  0.28457912  0.87635973     0.09500
Br617      Br  0.63531031  0.27642266  0.71364796    -0.06100
Br618      Br  0.52827232  0.23179191  0.79670735    -0.03000
Br619      Br  0.68663785  0.12301375  0.80750029    -0.00200
Br620      Br  0.60655108  0.33060869  0.83854908    -0.04600
C621        C  0.49370113  0.18158818  0.67782005    -0.12000
C622        C  0.47806610  0.17150209  0.64829142     0.03500
C623        C  0.46599506  0.12153158  0.64866123    -0.12500
C624        C  0.46936614  0.08082457  0.67805588     0.18400
C625        C  0.48646767  0.08892642  0.70613995    -0.09500
C626        C  0.49853183  0.13916179  0.70585286    -0.02500
H627        H  0.45311165  0.11538105  0.62671176     0.04900
C628        C  0.45245572  0.03438161  0.68130300     0.20300
H629        H  0.51087537  0.14603651  0.72835153     0.10100
C630        C  0.45575465  0.98908034  0.65914230    -0.15900
C631        C  0.43882414  0.94668907  0.66037159     0.03100
C632        C  0.41819610  0.94948454  0.68414834    -0.11200
C633        C  0.41510612  0.99506103  0.70619229    -0.01200
C634        C  0.43181171  0.03733991  0.70468103    -0.06400
H635        H  0.47148539  0.98682585  0.64078312     0.06100
H636        H  0.39921113  0.99860570  0.72414901     0.09500
Br637      Br  0.49296350  0.03341785  0.74604418    -0.06100
Br638      Br  0.47249165  0.22453760  0.60682994    -0.03000
Br639      Br  0.44537782  0.88520331  0.63030929    -0.00200
Br640      Br  0.42498943  0.09994246  0.73371491    -0.04600
C641        C  0.40407764  0.62694927  0.69439601    -0.12000
C642        C  0.39807592  0.57853007  0.71625534     0.03500
C643        C  0.41540731  0.53378982  0.72119137    -0.12500
C644        C  0.43896858  0.53719160  0.70560311     0.18400
C645        C  0.44571274  0.58761836  0.68715498    -0.09500
C646        C  0.42821449  0.63163382  0.68115424    -0.02500
H647        H  0.41010191  0.49523583  0.73563913     0.04900
C648        C  0.45477293  0.48581203  0.70361345     0.20300
H649        H  0.43318944  0.66885246  0.66475492     0.10100
C650        C  0.45170604  0.45313955  0.67368293    -0.15900
C651        C  0.46664403  0.40528381  0.66932431     0.03100
C652        C  0.48550479  0.38844911  0.69543748    -0.11200
C653        C  0.48789579  0.42141462  0.72611965    -0.01200
C654        C  0.47288932  0.46949645  0.73011555    -0.06400
H655        H  0.43765359  0.46543986  0.65318381     0.06100
H656        H  0.50136183  0.41124055  0.74746550     0.09500
Br657      Br  0.47821688  0.59686950  0.66784759    -0.06100
Br658      Br  0.36580520  0.56886609  0.73651349    -0.03000
Br659      Br  0.45995768  0.36615651  0.62630805    -0.00200
Br660      Br  0.47793131  0.51227832  0.77197438    -0.04600
C661        C  0.54658118  0.29226482  0.61184803    -0.12000
C662        C  0.56522454  0.32929412  0.60208809     0.03500
C663        C  0.57858152  0.32381831  0.56917953    -0.12500
C664        C  0.57347354  0.28210921  0.54550759     0.18400
C665        C  0.55504086  0.24475556  0.55555400    -0.09500
C666        C  0.54201629  0.24961137  0.58872390    -0.02500
H667        H  0.59292084  0.35233134  0.56190545     0.04900
C668        C  0.58722951  0.27838145  0.51020818     0.20300
H669        H  0.52789088  0.22064301  0.59610323     0.10100
C670        C  0.60462998  0.23446418  0.50669296    -0.15900
C671        C  0.61662450  0.22740287  0.47287720     0.03100
C672        C  0.61132600  0.26492043  0.44171281    -0.11200
C673        C  0.59465162  0.31023593  0.44576584    -0.01200
C674        C  0.58250379  0.31687780  0.47958998    -0.06400
H675        H  0.60860857  0.20505156  0.53024324     0.06100
H676        H  0.59023941  0.33917952  0.42213878     0.09500
Br677      Br  0.54617743  0.18826257  0.52392806    -0.06100
Br678      Br  0.57381041  0.38634866  0.63346539    -0.03000
Br679      Br  0.64054017  0.16653372  0.47127818    -0.00200
Br680      Br  0.55832975  0.37681429  0.48209327    -0.04600
C681        C  0.83772025  0.71219455  0.34141863    -0.12000
C682        C  0.83857894  0.68579340  0.30766062     0.03500
C683        C  0.85824285  0.69447744  0.28292212    -0.12500
C684        C  0.87726073  0.72874173  0.29143141     0.18400
C685        C  0.87647582  0.75484851  0.32495202    -0.09500
C686        C  0.85686318  0.74677747  0.34940794    -0.02500
H687        H  0.85884403  0.67402351  0.25716200     0.04900
C688        C  0.89785667  0.73819953  0.26531829     0.20300
H689        H  0.85650943  0.76823090  0.37476195     0.10100
C690        C  0.89728944  0.78702413  0.24179040    -0.15900
C691        C  0.91796447  0.80214798  0.22101560     0.03100
C692        C  0.93973356  0.76800890  0.22365501    -0.11200
C693        C  0.93984646  0.71771408  0.24574281    -0.01200
C694        C  0.91918456  0.70291465  0.26679675    -0.06400
H695        H  0.88086574  0.81415336  0.24030884     0.06100
H696        H  0.95623772  0.69055834  0.24732331     0.09500
Br697      Br  0.90209904  0.80155631  0.33854989    -0.06100
Br698      Br  0.81457412  0.63473783  0.29476049    -0.03000
Br699      Br  0.91495036  0.86814047  0.18797606    -0.00200
Br700      Br  0.92119898  0.63567539  0.29856359    -0.04600
C701        C  0.01579653  0.68871063  0.18179668    -0.12000
C702        C  0.02289090  0.65866315  0.21519872     0.03500
C703        C  0.03836762  0.61065511  0.21433292    -0.12500
C704        C  0.04726182  0.59247531  0.18046832     0.18400
C705        C  0.03988450  0.62244204  0.14706702    -0.09500
C706        C  0.02415987  0.66987263  0.14797361    -0.02500
H707        H  0.04386294  0.58798308  0.24017573     0.04900
C708        C  0.06478761  0.54341997  0.18040320     0.20300
H709        H  0.01900449  0.69318666  0.12218654     0.10100
C710        C  0.05747009  0.49447846  0.16565381    -0.15900
C711        C  0.07424637  0.44937515  0.16209798     0.03100
C712        C  0.09875413  0.45232783  0.17395248    -0.11200
C713        C  0.10572662  0.50011898  0.19051862    -0.01200
C714        C  0.08906118  0.54568049  0.19343068    -0.06400
H715        H  0.03881384  0.49201292  0.15586439     0.06100
H716        H  0.12461248  0.50352701  0.19896917     0.09500
Br717      Br  0.05205409  0.60257312  0.09964996    -0.06100
Br718      Br  0.01234367  0.68238964  0.26247742    -0.03000
Br719      Br  0.06299108  0.38474303  0.14037605    -0.00200
Br720      Br  0.10093633  0.61207720  0.21197521    -0.05400
C721        C  0.00660500  0.89829803  0.18103943    -0.12000
C722        C  0.02099604  0.90671179  0.21272980     0.03500
C723        C  0.03521026  0.95375631  0.21342659    -0.12500
C724        C  0.03465041  0.99494784  0.18393613     0.18400
C725        C  0.01859516  0.98973809  0.15417252    -0.09500
C726        C  0.00479968  0.94237472  0.15296877    -0.02500
H727        H  0.04705753  0.95783864  0.23700021     0.04900
C728        C  0.05163571  0.04164314  0.18371182     0.20300
H729        H  0.99252691  0.94177596  0.12979871     0.10100
C730        C  0.06946854  0.04666604  0.15559787    -0.15900
C731        C  0.08613143  0.08930126  0.15451503     0.03100
C732        C  0.08527482  0.12801583  0.18197917    -0.11200
C733        C  0.06763926  0.12274169  0.21036164    -0.01200
C734        C  0.05081642  0.08026195  0.21129498    -0.06400
H735        H  0.07066784  0.01663639  0.13465677     0.06100
H736        H  0.06692180  0.15189305  0.23185998     0.09500
Br737      Br  0.01433583  0.04708289  0.11467442    -0.06100
Br738      Br  0.02220155  0.85598043  0.25632843    -0.03000
Br739      Br  0.11090101  0.09010368  0.11664879    -0.00200
Br740      Br  0.02672988  0.07757777  0.25021155    -0.04600
C741        C  0.95930597  0.77121701  0.10160077    -0.12000
C742        C  0.93600265  0.74750228  0.10071153     0.03500
C743        C  0.92448645  0.74239396  0.06664041    -0.12500
C744        C  0.93571227  0.75986239  0.03318418     0.18400
C745        C  0.95913936  0.78158772  0.03369592    -0.09500
C746        C  0.97076427  0.78678701  0.06759067    -0.02500
H747        H  0.90655046  0.72479151  0.06618439     0.04900
C748        C  0.92308425  0.75256766  0.99797712     0.20300
H749        H  0.98881830  0.80383340  0.06730234     0.10100
C750        C  0.90497094  0.79203557  0.98462155    -0.15900
C751        C  0.89188067  0.78447527  0.95215235     0.03100
C752        C  0.89694342  0.73636654  0.93261816    -0.11200
C753        C  0.91529057  0.69733515  0.94624299    -0.01200
C754        C  0.92829993  0.70516038  0.97849329    -0.06400
H755        H  0.90076828  0.82841564  0.99984755     0.06100
H756        H  0.91962073  0.66033465  0.93172541     0.09500
Br757      Br  0.97569563  0.80540961  0.98874344    -0.06100
Br758      Br  0.91777291  0.72336632  0.14389916    -0.03000
Br759      Br  0.86632870  0.83930569  0.93787237    -0.00200
Br760      Br  0.95281431  0.64955305  0.99541232    -0.04600
loop_ 
_geom_bond_atom_site_label_1 
_geom_bond_atom_site_label_2 
_geom_bond_distance 
_geom_bond_site_symmetry_2 
_ccdc_geom_bond_type 
C1            C2   1.548       .  S
C1            C7   1.540   1_655  S
C1            C5   1.537       .  S
C1          C721   1.546   1_655  S
C2            H9   1.079       .  S
C2            C3   1.368       .  D
C3            C4   1.538       .  S
C3          C741   1.494       .  S
C4            C8   1.537   1_655  S
C4            C6   1.540       .  S
C4           H10   1.109       .  S
C5           H11   1.086       .  S
C5            C6   1.369       .  D
C6          C692   1.482       .  S
C7           H12   1.086       .  S
C7            C8   1.363       .  D
C8          C701   1.479       .  S
C13          C14   1.542       .  S
C13          C19   1.544       .  S
C13          C17   1.549       .  S
C13         C652   1.548       .  S
C14          H21   1.086       .  S
C14          C15   1.367       .  D
C15          C16   1.535       .  S
C15         C621   1.482       .  S
C16          C20   1.533       .  S
C16          C18   1.533       .  S
C16          H22   1.111       .  S
C17          H23   1.080       .  S
C17          C18   1.365       .  D
C18         C601   1.477       .  S
C19          H24   1.086       .  S
C19          C20   1.367       .  D
C20         C661   1.481       .  S
O25         Ni31   1.924       .  S
O25          C46   1.270       .  A
O26         Ni49   1.914       .  S
O26          C35   1.271       .  A
O27         Ni31   1.897       .  S
O27         Ni49   1.905       .  S
O27         Ni43   1.917       .  S
O27          H50   0.966       .  S
C28          O45   1.276       .  A
C28          O37   1.279       .  A
C28         C521   1.485       .  S
O29         Ni48   1.933       .  S
O29          C35   1.275       .  A
O30         Ni48   1.904       .  S
O30          C32   1.267       .  A
Ni31         O34   1.914       .  S
Ni31         O36   1.906       .  S
C32          O42   1.277       .  A
C32         C592   1.491       .  S
O33         Ni49   1.942       .  S
O33          C39   1.282       .  A
O34          C39   1.276       .  A
C35         C541   1.491       .  S
O36          C38   1.267       .  A
O37         Ni48   1.935       .  S
C38          O44   1.274       .  A
C38         C512   1.488       .  S
C39         C572   1.482       .  S
H40          O41   0.966       .  S
O41         Ni49   1.919       .  S
O41         Ni43   1.904       .  S
O41         Ni48   1.902       .  S
O42         Ni43   1.942       .  S
Ni43         O47   1.920       .  S
Ni43         O45   1.920       .  S
O44         Ni49   1.929       .  S
C46          O47   1.271       .  A
C46         C672   1.482       .  S
C51          C52   1.534       .  S
C51          C57   1.544       .  S
C51          C55   1.535       .  S
C51         C552   1.541       .  S
C52          H59   1.087       .  S
C52          C53   1.367       .  D
C53          C54   1.545       .  S
C53         C492   1.494       .  S
C54          C58   1.542       .  S
C54          C56   1.543       .  S
C54          H60   1.109       .  S
C55          H61   1.086       .  S
C55          C56   1.366       .  D
C56         C612   1.483       .  S
C57          H62   1.081       .  S
C57          C58   1.367       .  D
C58         C461   1.486       .  S
O63         Ni69   1.933       .  S
O63          C84   1.276       .  A
O64         Ni87   1.906       .  S
O64          C73   1.266       .  A
O65         Ni69   1.899       .  S
O65         Ni87   1.901       .  S
O65         Ni81   1.914       .  S
O65          H88   0.966       .  S
C66          O83   1.279       .  A
C66          O75   1.275       .  A
C66         C481   1.478       .  S
O67         Ni86   1.931       .  S
O67          C73   1.273       .  A
O68         Ni86   1.912       .  S
O68          C70   1.270       .  A
Ni69         O72   1.931       .  S
Ni69         O74   1.912       .  S
C70          O80   1.271       .  A
C70         C421   1.476       .  S
O71         Ni87   1.918       .  S
O71          C77   1.275       .  A
O72          C77   1.279       .  A
C73         C752   1.483       .  S
O74          C76   1.269       .  A
O75         Ni86   1.915       .  S
C76          O82   1.274       .  A
C76         C472   1.490       .  S
C77         C401   1.489       .  S
H78          O79   0.966       .  S
O79         Ni87   1.913       .  S
O79         Ni81   1.910       .  S
O79         Ni86   1.905       .  S
O80         Ni81   1.929       .  S
Ni81         O85   1.915       .  S
Ni81         O83   1.936       .  S
O82         Ni87   1.936       .  S
C84          O85   1.270       .  A
C84         C441   1.495       .  S
C89          C90   1.530       .  S
C89          C95   1.542       .  S
C89          C93   1.546       .  S
C89         C452   1.546       .  S
C90          H97   1.087       .  S
C90          C91   1.365       .  D
C91          C92   1.546       .  S
C91         C581   1.490       .  S
C92          C96   1.544       .  S
C92          C94   1.544       .  S
C92          H98   1.108       .  S
C93          H99   1.080       .  S
C93          C94   1.368       .  D
C94         C681   1.494       .  S
C95         H100   1.086       .  S
C95          C96   1.370       .  D
C96         C561   1.496       .  S
C101        C102   1.538       .  S
C101        C107   1.535       .  S
C101        C105   1.537       .  S
C101        C501   1.539       .  S
C102        H109   1.081       .  S
C102        C103   1.360       .  D
C103        C104   1.546       .  S
C103        C532   1.480       .  S
C104        C108   1.539       .  S
C104        C106   1.551       .  S
C104        H110   1.107       .  S
C105        H111   1.085       .  S
C105        C106   1.376       .  D
C106        C361   1.504       .  S
C107        H112   1.087       .  S
C107        C108   1.360       .  D
C108        C392   1.480       .  S
C113        C114   1.539       .  S
C113        C119   1.548   1_455  S
C113        C117   1.538       .  S
C113        C412   1.543   1_455  S
C114        H121   1.086       .  S
C114        C115   1.369       .  D
C115        C116   1.541       .  S
C115        C332   1.485       .  S
C116        C120   1.536       .  S
C116        C118   1.539       .  S
C116        H122   1.111       .  S
C117        H123   1.086       .  S
C117        C118   1.363       .  D
C118        C341   1.479       .  S
C119        H124   1.079       .  S
C119        C120   1.364   1_655  D
C120        C432   1.487   1_455  S
O125       Ni131   1.919       .  S
O125        C146   1.268       .  A
O126       Ni149   1.918       .  S
O126        C135   1.270       .  A
O127       Ni131   1.919       .  S
O127       Ni149   1.923       .  S
O127       Ni143   1.931       .  S
O127        H150   0.965       .  S
C128        O145   1.276       .  A
C128        O137   1.275       .  A
C128        C732   1.481       .  S
O129       Ni148   1.936       .  S
O129        C135   1.271       .  A
O130       Ni148   1.911       .  S
O130        C132   1.269       .  A
Ni131       O134   1.927       .  S
Ni131       O136   1.894       .  S
C132        O142   1.273       .  A
C132        C301   1.484       .  S
O133       Ni149   1.910       .  S
O133        C139   1.267       .  A
O134        C139   1.270       .  A
C135        C272   1.496       .  S
O136        C138   1.267       .  A
O137       Ni148   1.930       .  S
C138        O144   1.280       .  A
C138        C712   1.479       .  S
C139        C292   1.468       .  S
H140        O141   0.966       .  S
O141       Ni149   1.910       .  S
O141       Ni143   1.915       .  S
O141       Ni148   1.921       .  S
O142       Ni143   1.930       .  S
Ni143       O147   1.918       .  S
Ni143       O145   1.922       .  S
O144       Ni149   1.957       .  S
C146        O147   1.270       .  A
C146        C352   1.486       .  S
C151        C152   1.539       .  S
C151        C157   1.541       .  S
C151        C155   1.550       .  S
C151        C261   1.551       .  S
C152        H159   1.086       .  S
C152        C153   1.368       .  D
C153        C154   1.543       .  S
C153        C241   1.493       .  S
C154        C158   1.543       .  S
C154        C156   1.530       .  S
C154        H160   1.109       .  S
C155        H161   1.080       .  S
C155        C156   1.363       .  D
C156        C321   1.475       .  S
C157        H162   1.086       .  S
C157        C158   1.374       .  D
C158        C221   1.499       .  S
O163       Ni169   1.916       .  S
O163        C184   1.268       .  A
O164       Ni187   1.918       .  S
O164        C173   1.269       .  A
O165       Ni169   1.896       .  S
O165       Ni187   1.914       .  S
O165       Ni181   1.924       .  S
O165        H188   0.966       .  S
C166        O183   1.282       .  A
C166        O175   1.278       .  A
C166        C632   1.484       .  S
O167       Ni186   1.909       .  S
O167        C173   1.265       .  A
O168       Ni186   1.897       .  S
O168        C170   1.263       .  A
Ni169       O172   1.917       .  S
Ni169       O174   1.904       .  S
C170        O180   1.277       .  A
C170        C252   1.498       .  S
O171       Ni187   1.938       .  S
O171        C177   1.281       .  A
O172        C177   1.275       .  A
C173        C201   1.471       .  S
O174        C176   1.267       .  A
O175       Ni186   1.915       .  S
C176        O182   1.272       .  A
C176        C641   1.479       .  S
C177        C232   1.492       .  S
H178        O179   0.966       .  S
O179       Ni187   1.925       .  S
O179       Ni181   1.895       .  S
O179       Ni186   1.889       .  S
O180       Ni181   1.945       .  S
Ni181       O185   1.921       .  S
Ni181       O183   1.939       .  S
O182       Ni187   1.938       .  S
C184        O185   1.271       .  A
C184        C381   1.474       .  S
C189        C190   1.539       .  S
C189        C195   1.539       .  S
C189        C193   1.533       .  S
C189        C212   1.539   1_554  S
C190        H197   1.086       .  S
C190        C191   1.373       .  D
C191        C192   1.549       .  S
C191        C312   1.499       .  S
C192        C196   1.536       .  S
C192        C194   1.546       .  S
C192        H198   1.106       .  S
C193        H199   1.086       .  S
C193        C194   1.368       .  D
C194        C372   1.494       .  S
C195        H200   1.079       .  S
C195        C196   1.358       .  D
C196        C281   1.476       .  S
C201        C202   1.410       .  A
C201        C206   1.405       .  A
C202        C203   1.400       .  A
C202       Br218   1.920       .  S
C203        C204   1.404       .  A
C203        H207   1.083       .  S
C204        C208   1.473       .  S
C204        C205   1.404       .  A
C205        C206   1.394       .  A
C205       Br217   1.919       .  S
C206        H209   1.084       .  S
C208        C210   1.400       .  A
C208        C214   1.398       .  A
C210        C211   1.401       .  A
C210        H215   1.084       .  S
C211        C212   1.422       .  A
C211       Br219   1.924       .  S
C212        C213   1.417       .  A
C213        C214   1.394       .  A
C213        H216   1.073       .  S
C214       Br220   1.921       .  S
C221        C222   1.415       .  A
C221        C226   1.408       .  A
C222        C223   1.405       .  A
C222       Br238   1.920       .  S
C223        C224   1.407       .  A
C223        H227   1.084       .  S
C224        C228   1.491       .  S
C224        C225   1.410       .  A
C225        C226   1.400       .  A
C225       Br237   1.920       .  S
C226        H229   1.083       .  S
C228        C230   1.398       .  A
C228        C234   1.414       .  A
C230        C231   1.392       .  A
C230        H235   1.084       .  S
C231        C232   1.418       .  A
C231       Br239   1.925       .  S
C232        C233   1.409       .  A
C233        C234   1.411       .  A
C233        H236   1.083       .  S
C234       Br240   1.918       .  S
C241        C242   1.414       .  A
C241        C246   1.407       .  A
C242        C243   1.397       .  A
C242       Br258   1.913       .  S
C243        C244   1.399       .  A
C243        H247   1.084       .  S
C244        C248   1.486       .  S
C244        C245   1.411       .  A
C245        C246   1.405       .  A
C245       Br257   1.918       .  S
C246        H249   1.082       .  S
C248        C250   1.398       .  A
C248        C254   1.409       .  A
C250        C251   1.399       .  A
C250        H255   1.084       .  S
C251        C252   1.426   1_545  A
C251       Br259   1.926       .  S
C252        C253   1.408       .  A
C253        C254   1.403   1_565  A
C253        H256   1.083       .  S
C254       Br260   1.918   1_545  S
C261        C262   1.425       .  A
C261        C266   1.416       .  A
C262        C263   1.403       .  A
C262       Br278   1.918       .  S
C263        C264   1.399       .  A
C263        H267   1.084       .  S
C264        C268   1.489       .  S
C264        C265   1.406       .  A
C265        C266   1.403       .  A
C265       Br277   1.921       .  S
C266        H269   1.074       .  S
C268        C270   1.400       .  A
C268        C274   1.409       .  A
C270        C271   1.400       .  A
C270        H275   1.084       .  S
C271        C272   1.419       .  A
C271       Br279   1.920       .  S
C272        C273   1.409       .  A
C273        C274   1.405       .  A
C273        H276   1.083       .  S
C274       Br280   1.917       .  S
C281        C282   1.410       .  A
C281        C286   1.401       .  A
C282        C283   1.393       .  A
C282       Br298   1.923       .  S
C283        C284   1.402       .  A
C283        H287   1.083       .  S
C284        C288   1.483       .  S
C284        C285   1.412       .  A
C285        C286   1.404       .  A
C285       Br297   1.917       .  S
C286        H289   1.083       .  S
C288        C290   1.407       .  A
C288        C294   1.410       .  A
C290        C291   1.401       .  A
C290        H295   1.084       .  S
C291        C292   1.406       .  A
C291       Br299   1.917       .  S
C292        C293   1.401       .  A
C293        C294   1.397       .  A
C293        H296   1.083       .  S
C294       Br300   1.919       .  S
C301        C302   1.414       .  A
C301        C306   1.406       .  A
C302        C303   1.402       .  A
C302       Br318   1.918       .  S
C303        C304   1.401       .  A
C303        H307   1.083       .  S
C304        C308   1.479   1_545  S
C304        C305   1.406       .  A
C305        C306   1.399       .  A
C305       Br317   1.918       .  S
C306        H309   1.082       .  S
C308        C310   1.399       .  A
C308        C314   1.404   1_565  A
C310        C311   1.400       .  A
C310        H315   1.084       .  S
C311        C312   1.418       .  A
C311       Br319   1.916       .  S
C312        C313   1.411       .  A
C313        C314   1.400   1_565  A
C313        H316   1.083       .  S
C314       Br320   1.918       .  S
C321        C322   1.407       .  A
C321        C326   1.401       .  A
C322        C323   1.399       .  A
C322       Br338   1.916       .  S
C323        C324   1.402       .  A
C323        H327   1.083       .  S
C324        C328   1.478       .  S
C324        C325   1.408       .  A
C325        C326   1.400       .  A
C325       Br337   1.918       .  S
C326        H329   1.083       .  S
C328        C330   1.402       .  A
C328        C334   1.406       .  A
C330        C331   1.399       .  A
C330        H335   1.084       .  S
C331        C332   1.413       .  A
C331       Br339   1.920       .  S
C332        C333   1.405       .  A
C333        C334   1.399       .  A
C333        H336   1.082       .  S
C334       Br340   1.917       .  S
C341        C342   1.409       .  A
C341        C346   1.401       .  A
C342        C343   1.400       .  A
C342       Br358   1.917       .  S
C343        C344   1.402       .  A
C343        H347   1.083       .  S
C344        C348   1.479       .  S
C344        C345   1.408       .  A
C345        C346   1.400       .  A
C345       Br357   1.917       .  S
C346        H349   1.081       .  S
C348        C350   1.398       .  A
C348        C354   1.408       .  A
C350        C351   1.398       .  A
C350        H355   1.084       .  S
C351        C352   1.417   1_556  A
C351       Br359   1.922       .  S
C352        C353   1.407       .  A
C353        C354   1.404   1_554  A
C353        H356   1.083       .  S
C354       Br360   1.918   1_556  S
C361        C362   1.418       .  A
C361        C366   1.410       .  A
C362        C363   1.405       .  A
C362       Br378   1.916       .  S
C363        C364   1.405       .  A
C363        H367   1.084       .  S
C364        C368   1.492       .  S
C364        C365   1.408       .  A
C365        C366   1.397       .  A
C365       Br377   1.921       .  S
C366        H369   1.082       .  S
C368        C370   1.406       .  A
C368        C374   1.410       .  A
C370        C371   1.403       .  A
C370        H375   1.083       .  S
C371        C372   1.413       .  A
C371       Br379   1.919       .  S
C372        C373   1.407       .  A
C373        C374   1.399       .  A
C373        H376   1.083       .  S
C374       Br380   1.921       .  S
C381        C382   1.411       .  A
C381        C386   1.404       .  A
C382        C383   1.393       .  A
C382       Br398   1.922       .  S
C383        C384   1.399       .  A
C383        H387   1.084       .  S
C384        C388   1.479       .  S
C384        C385   1.411       .  A
C385        C386   1.405       .  A
C385       Br397   1.917       .  S
C386        H389   1.083       .  S
C388        C390   1.401       .  A
C388        C394   1.411       .  A
C390        C391   1.400       .  A
C390        H395   1.083       .  S
C391        C392   1.411       .  A
C391       Br399   1.916       .  S
C392        C393   1.400       .  A
C393        C394   1.399       .  A
C393        H396   1.082       .  S
C394       Br400   1.920       .  S
C401        C402   1.417       .  A
C401        C406   1.408       .  A
C402        C403   1.401       .  A
C402       Br418   1.916       .  S
C403        C404   1.400       .  A
C403        H407   1.084       .  S
C404        C408   1.476   1_565  S
C404        C405   1.404       .  A
C405        C406   1.398       .  A
C405       Br417   1.918       .  S
C406        H409   1.083       .  S
C408        C410   1.397       .  A
C408        C414   1.401       .  A
C410        C411   1.403   1_655  A
C410        H415   1.083   1_645  S
C411        C412   1.425   1_455  A
C411       Br419   1.922       .  S
C412        C413   1.416       .  A
C413        C414   1.396       .  A
C413        H416   1.073       .  S
C414       Br420   1.921       .  S
C421        C422   1.410       .  A
C421        C426   1.405       .  A
C422        C423   1.398       .  A
C422       Br438   1.920       .  S
C423        C424   1.402       .  A
C423        H427   1.084       .  S
C424        C428   1.479       .  S
C424        C425   1.408       .  A
C425        C426   1.403       .  A
C425       Br437   1.916       .  S
C426        H429   1.083       .  S
C428        C430   1.400       .  A
C428        C434   1.408       .  A
C430        C431   1.400       .  A
C430        H435   1.083       .  S
C431        C432   1.413       .  A
C431       Br439   1.919       .  S
C432        C433   1.402       .  A
C433        C434   1.402       .  A
C433        H436   1.080   1_655  S
C434       Br440   1.918       .  S
C441        C442   1.418       .  A
C441        C446   1.407       .  A
C442        C443   1.407       .  A
C442       Br458   1.922       .  S
C443        C444   1.408       .  A
C443        H447   1.083       .  S
C444        C448   1.496       .  S
C444        C445   1.411       .  A
C445        C446   1.396       .  A
C445       Br457   1.921       .  S
C446        H449   1.083       .  S
C448        C450   1.404       .  A
C448        C454   1.410       .  A
C450        C451   1.404       .  A
C450        H455   1.083       .  S
C451        C452   1.422       .  A
C451       Br459   1.923       .  S
C452        C453   1.414       .  A
C453        C454   1.400       .  A
C453        H456   1.075       .  S
C454       Br460   1.922       .  S
C461        C462   1.413       .  A
C461        C466   1.403       .  A
C462        C463   1.400       .  A
C462       Br478   1.922       .  S
C463        C464   1.401       .  A
C463        H467   1.083   1_545  S
C464        C468   1.485   1_545  S
C464        C465   1.411       .  A
C465        C466   1.404       .  A
C465       Br477   1.918       .  S
C466        H469   1.083       .  S
C468        C470   1.403       .  A
C468        C474   1.408       .  A
C470        C471   1.404       .  A
C470        H475   1.083       .  S
C471        C472   1.416       .  A
C471       Br479   1.920       .  S
C472        C473   1.407       .  A
C473        C474   1.401       .  A
C473        H476   1.084       .  S
C474       Br480   1.919       .  S
C481        C482   1.410       .  A
C481        C486   1.405       .  A
C482        C483   1.398       .  A
C482       Br498   1.919       .  S
C483        C484   1.401       .  A
C483        H487   1.084       .  S
C484        C488   1.481       .  S
C484        C485   1.408       .  A
C485        C486   1.405       .  A
C485       Br497   1.917       .  S
C486        H489   1.083       .  S
C488        C490   1.401       .  A
C488        C494   1.406       .  A
C490        C491   1.405       .  A
C490        H495   1.083       .  S
C491        C492   1.416       .  A
C491       Br499   1.915       .  S
C492        C493   1.407       .  A
C493        C494   1.397       .  A
C493        H496   1.083       .  S
C494       Br500   1.919       .  S
C501        C502   1.424       .  A
C501        C506   1.417       .  A
C502        C503   1.398       .  A
C502       Br518   1.921       .  S
C503        C504   1.396       .  A
C503        H507   1.084   1_565  S
C504        C508   1.473       .  S
C504        C505   1.400       .  A
C505        C506   1.397       .  A
C505       Br517   1.920       .  S
C506        H509   1.074       .  S
C508        C510   1.398   1_565  A
C508        C514   1.403   1_565  A
C510        C511   1.396       .  A
C510        H515   1.084   1_545  S
C511        C512   1.419       .  A
C511       Br519   1.924       .  S
C512        C513   1.410       .  A
C513        C514   1.401       .  A
C513        H516   1.082       .  S
C514       Br520   1.917       .  S
C521        C522   1.414       .  A
C521        C526   1.406       .  A
C522        C523   1.405       .  A
C522       Br538   1.919       .  S
C523        C524   1.402       .  A
C523        H527   1.083       .  S
C524        C528   1.481       .  S
C524        C525   1.408       .  A
C525        C526   1.399       .  A
C525       Br537   1.921       .  S
C526        H529   1.084       .  S
C528        C530   1.402       .  A
C528        C534   1.408       .  A
C530        C531   1.401       .  A
C530        H535   1.083       .  S
C531        C532   1.410       .  A
C531       Br539   1.918       .  S
C532        C533   1.402       .  A
C533        C534   1.400       .  A
C533        H536   1.082       .  S
C534       Br540   1.917       .  S
C541        C542   1.417       .  A
C541        C546   1.409       .  A
C542        C543   1.403       .  A
C542       Br558   1.919       .  S
C543        C544   1.403       .  A
C543        H547   1.083       .  S
C544        C548   1.482       .  S
C544        C545   1.406       .  A
C545        C546   1.397       .  A
C545       Br557   1.920       .  S
C546        H549   1.083       .  S
C548        C550   1.398       .  A
C548        C554   1.404       .  A
C550        C551   1.399   1_554  A
C550        H555   1.084       .  S
C551        C552   1.424       .  A
C551       Br559   1.925       .  S
C552        C553   1.415   1_556  A
C553        C554   1.401       .  A
C553        H556   1.075   1_554  S
C554       Br560   1.919       .  S
C561        C562   1.416       .  A
C561        C566   1.407       .  A
C562        C563   1.404       .  A
C562       Br578   1.914       .  S
C563        C564   1.400       .  A
C563        H567   1.083       .  S
C564        C568   1.484       .  S
C564        C565   1.408       .  A
C565        C566   1.401       .  A
C565       Br577   1.918       .  S
C566        H569   1.083       .  S
C568        C570   1.404       .  A
C568        C574   1.407   1_565  A
C570        C571   1.406   1_565  A
C570        H575   1.083       .  S
C571        C572   1.414       .  A
C571       Br579   1.919       .  S
C572        C573   1.404       .  A
C573        C574   1.399       .  A
C573        H576   1.084       .  S
C574       Br580   1.918       .  S
C581        C582   1.412       .  A
C581        C586   1.408       .  A
C582        C583   1.404       .  A
C582       Br598   1.916       .  S
C583        C584   1.403       .  A
C583        H587   1.083       .  S
C584        C588   1.481       .  S
C584        C585   1.405       .  A
C585        C586   1.399       .  A
C585       Br597   1.918       .  S
C586        H589   1.084       .  S
C588        C590   1.400       .  A
C588        C594   1.407       .  A
C590        C591   1.402       .  A
C590        H595   1.084       .  S
C591        C592   1.419       .  A
C591       Br599   1.922       .  S
C592        C593   1.407       .  A
C593        C594   1.401       .  A
C593        H596   1.083       .  S
C594       Br600   1.918       .  S
C601        C602   1.407       .  A
C601        C606   1.403       .  A
C602        C603   1.398       .  A
C602       Br618   1.918       .  S
C603        C604   1.404       .  A
C603        H607   1.084       .  S
C604        C608   1.481       .  S
C604        C605   1.409       .  A
C605        C606   1.400       .  A
C605       Br617   1.919       .  S
C606        H609   1.083       .  S
C608        C610   1.405       .  A
C608        C614   1.408       .  A
C610        C611   1.403       .  A
C610        H615   1.083       .  S
C611        C612   1.410       .  A
C611       Br619   1.916       .  S
C612        C613   1.404       .  A
C613        C614   1.395       .  A
C613        H616   1.083       .  S
C614       Br620   1.920       .  S
C621        C622   1.409       .  A
C621        C626   1.404       .  A
C622        C623   1.398       .  A
C622       Br638   1.914       .  S
C623        C624   1.400       .  A
C623        H627   1.084       .  S
C624        C628   1.480       .  S
C624        C625   1.410       .  A
C625        C626   1.404       .  A
C625       Br637   1.918       .  S
C626        H629   1.084       .  S
C628        C630   1.404   1_545  A
C628        C634   1.406       .  A
C630        C631   1.406       .  A
C630        H635   1.083       .  S
C631        C632   1.414       .  A
C631       Br639   1.919       .  S
C632        C633   1.406       .  A
C633        C634   1.395   1_565  A
C633        H636   1.084       .  S
C634       Br640   1.921       .  S
C641        C642   1.412       .  A
C641        C646   1.404       .  A
C642        C643   1.403       .  A
C642       Br658   1.919       .  S
C643        C644   1.403       .  A
C643        H647   1.083       .  S
C644        C648   1.482       .  S
C644        C645   1.407       .  A
C645        C646   1.400       .  A
C645       Br657   1.917       .  S
C646        H649   1.084       .  S
C648        C650   1.397       .  A
C648        C654   1.401       .  A
C650        C651   1.400       .  A
C650        H655   1.084       .  S
C651        C652   1.423       .  A
C651       Br659   1.919       .  S
C652        C653   1.419       .  A
C653        C654   1.404       .  A
C653        H656   1.074       .  S
C654       Br660   1.918       .  S
C661        C662   1.410       .  A
C661        C666   1.402       .  A
C662        C663   1.402       .  A
C662       Br678   1.919       .  S
C663        C664   1.404       .  A
C663        H667   1.083       .  S
C664        C668   1.482       .  S
C664        C665   1.409       .  A
C665        C666   1.399       .  A
C665       Br677   1.919       .  S
C666        H669   1.083       .  S
C668        C670   1.401       .  A
C668        C674   1.408       .  A
C670        C671   1.400       .  A
C670        H675   1.084       .  S
C671        C672   1.415       .  A
C671       Br679   1.922       .  S
C672        C673   1.405       .  A
C673        C674   1.402       .  A
C673        H676   1.083       .  S
C674       Br680   1.918       .  S
C681        C682   1.415       .  A
C681        C686   1.408       .  A
C682        C683   1.406       .  A
C682       Br698   1.918       .  S
C683        C684   1.403       .  A
C683        H687   1.083       .  S
C684        C688   1.478       .  S
C684        C685   1.403       .  A
C685        C686   1.395       .  A
C685       Br697   1.920       .  S
C686        H689   1.083       .  S
C688        C690   1.401       .  A
C688        C694   1.408       .  A
C690        C691   1.399       .  A
C690        H695   1.084       .  S
C691        C692   1.413       .  A
C691       Br699   1.921       .  S
C692        C693   1.403       .  A
C693        C694   1.401       .  A
C693        H696   1.083       .  S
C694       Br700   1.917       .  S
C701        C702   1.408       .  A
C701        C706   1.401       .  A
C702        C703   1.403       .  A
C702       Br718   1.917       .  S
C703        C704   1.405       .  A
C703        H707   1.083       .  S
C704        C708   1.486       .  S
C704        C705   1.411       .  A
C705        C706   1.400       .  A
C705       Br717   1.918       .  S
C706        H709   1.084       .  S
C708        C710   1.404       .  A
C708        C714   1.411       .  A
C710        C711   1.401       .  A
C710        H715   1.083       .  S
C711        C712   1.411       .  A
C711       Br719   1.920       .  S
C712        C713   1.404       .  A
C713        C714   1.403       .  A
C713        H716   1.083       .  S
C714       Br720   1.919       .  S
C721        C722   1.422       .  A
C721        C726   1.415       .  A
C722        C723   1.404       .  A
C722       Br738   1.923       .  S
C723        C724   1.403       .  A
C723        H727   1.083       .  S
C724        C728   1.489   1_565  S
C724        C725   1.405       .  A
C725        C726   1.399       .  A
C725       Br737   1.921   1_565  S
C726        H729   1.075   1_455  S
C728        C730   1.405       .  A
C728        C734   1.411       .  A
C730        C731   1.401       .  A
C730        H735   1.084       .  S
C731        C732   1.409       .  A
C731       Br739   1.917       .  S
C732        C733   1.405       .  A
C733        C734   1.404       .  A
C733        H736   1.083       .  S
C734       Br740   1.918       .  S
C741        C742   1.418       .  A
C741        C746   1.410       .  A
C742        C743   1.399       .  A
C742       Br758   1.915       .  S
C743        C744   1.398       .  A
C743        H747   1.084       .  S
C744        C748   1.473   1_554  S
C744        C745   1.403       .  A
C745        C746   1.397       .  A
C745       Br757   1.918   1_554  S
C746        H749   1.083       .  S
C748        C750   1.402       .  A
C748        C754   1.402       .  A
C750        C751   1.402       .  A
C750        H755   1.084       .  S
C751        C752   1.416       .  A
C751       Br759   1.922       .  S
C752        C753   1.407       .  A
C753        C754   1.395       .  A
C753        H756   1.083       .  S
C754       Br760   1.919       .  S
