geometry optimzed in LAMMPS
_audit_creation_date              2020-11-30 
_audit_creation_method            'lammps2cif' 
_symmetry_space_group_name_H-M    'P1' 
_symmetry_Int_Tables_number       1 
_symmetry_cell_setting            triclinic 
loop_ 
_symmetry_equiv_pos_as_xyz 
  x,y,z 
_cell_length_a                    43.68367335 
_cell_length_b                    53.168098698090084 
_cell_length_c                    48.23083327685581 
_cell_angle_alpha                 89.59226695744987 
_cell_angle_beta                  90.04286414514935 
_cell_angle_gamma                 89.81676882970984 
loop_ 
_atom_site_label 
_atom_site_type_symbol 
_atom_site_fract_x 
_atom_site_fract_y 
_atom_site_fract_z 
_atom_site_charge 
N1          N  0.49770896  0.53950570  0.46733827    -0.35700
N2          N  0.54513054  0.50081807  0.47484667    -0.56200
N3          N  0.49726629  0.46362869  0.98336091    -0.35700
N4          N  0.45018563  0.50278275  0.97935122    -0.56200
C5          C  0.52270528  0.55410841  0.47084227     0.27900
C6          C  0.47283416  0.55463027  0.46985556     0.27900
C7          C  0.52223172  0.44939262  0.98938937     0.27900
C8          C  0.47229681  0.45062911  0.99175184     0.27900
C9          C  0.56359274  0.52085825  0.47111233     0.36500
C10         C  0.56212468  0.47957691  0.97362101     0.36500
C11         C  0.43178761  0.52213533  0.46767170     0.36500
C12         C  0.43220453  0.48220583  0.97864478     0.36500
C13         C  0.51355883  0.57884236  0.47495029    -0.21000
C14         C  0.48219567  0.57915207  0.47436868    -0.21000
C15         C  0.51296052  0.42701485  0.00166658    -0.21000
C16         C  0.48150746  0.42776918  0.00310339    -0.21000
C17         C  0.59393036  0.51311526  0.47094032    -0.22000
C18         C  0.59381513  0.48744677  0.47455047    -0.22000
C19         C  0.40326815  0.51435021  0.96501700    -0.22000
C20         C  0.40293860  0.48883973  0.97002286    -0.22000
C21         C  0.55366844  0.54617785  0.46930846    -0.17400
C22         C  0.44185331  0.54731111  0.46712339    -0.17400
C23         C  0.44137131  0.45784388  0.98730460    -0.17400
C24         C  0.55291672  0.45518475  0.98214950    -0.17400
H25         H  0.52794015  0.59512996  0.47796116     0.15500
H26         H  0.46794987  0.59567651  0.47683409     0.15500
H27         H  0.52733061  0.41151904  0.00842495     0.15500
H28         H  0.46702731  0.41292263  0.01111489     0.15500
H29         H  0.61406454  0.52476853  0.46871593     0.13800
H30         H  0.61384128  0.47542774  0.47544551     0.13800
H31         H  0.38400434  0.52571625  0.95831324     0.13800
H32         H  0.38332964  0.47661955  0.96783609     0.13800
H33         H  0.49781911  0.52116685  0.46045331     0.27100
H34         H  0.49698504  0.47977747  0.97116405     0.27100
N35         N  0.99868431  0.03853934  0.50213273    -0.35700
N36         N  0.95320338  0.99877600  0.50020729    -0.56200
N37         N  0.00170655  0.96243477  0.49607297    -0.35700
N38         N  0.04697536  0.00253661  0.49722760    -0.56200
C39         C  0.97256401  0.05142926  0.49735638     0.27900
C40         C  0.02199312  0.05328639  0.49338331     0.27900
C41         C  0.97756136  0.94821850  0.48823279     0.27900
C42         C  0.02739721  0.94988219  0.48886025     0.27900
C43         C  0.93504740  0.01795905  0.50815724     0.36500
C44         C  0.93629953  0.97763882  0.50225525     0.36500
C45         C  0.06402837  0.02324018  0.50169214     0.36500
C46         C  0.06569561  0.98262672  0.50094662     0.36500
C47         C  0.97925339  0.07456514  0.48534935    -0.21000
C48         C  0.01052549  0.07560896  0.48253486    -0.21000
C49         C  0.98809850  0.92627141  0.47609133    -0.21000
C50         C  0.01955514  0.92724094  0.47664915    -0.21000
C51         C  0.90634649  0.00901344  0.51540889    -0.22000
C52         C  0.90707808  0.98338154  0.51145053    -0.22000
C53         C  0.09383232  0.01652599  0.50824571    -0.22000
C54         C  0.09490830  0.99068538  0.50776507    -0.22000
C55         C  0.94310383  0.04352589  0.50547745    -0.17400
C56         C  0.05330226  0.04797899  0.49746582    -0.17400
C57         C  0.05767473  0.95768954  0.49453569    -0.17400
C58         C  0.94637981  0.95373221  0.49348170    -0.17400
H59         H  0.96328438  0.08928753  0.47951890     0.15500
H60         H  0.02343659  0.09135212  0.47438751     0.15500
H61         H  0.97454497  0.91094149  0.46807239     0.15500
H62         H  0.03487194  0.91279573  0.46909904     0.15500
H63         H  0.88666387  0.01991840  0.52184303     0.13800
H64         H  0.88816843  0.97053978  0.51443225     0.13800
H65         H  0.11289962  0.02892826  0.51227022     0.13800
H66         H  0.11509366  0.97919485  0.51109324     0.13800
H67         H  0.00049852  0.02220950  0.51407640     0.27100
H68         H  0.00098224  0.97831888  0.50848463     0.27100
O69         O  0.31208140  0.24054623  0.02168991    -0.77600
C70         C  0.29524172  0.22710286  0.43575512     0.83500
O71         O  0.26671172  0.31352060  0.49619594    -0.78700
O72         O  0.20340040  0.26179652  0.43747873    -0.80200
O73         O  0.21122216  0.20194009  0.01577297    -0.80000
O74         O  0.27466644  0.22389239  0.04723037    -0.78600
Zn75       Zn  0.29264905  0.25409093  0.49132628     1.55700
O76         O  0.20445521  0.20583112  0.46856603    -0.80000
Cd77       Cd  0.23590422  0.23389542  0.02551665     1.59700
Cd78       Cd  0.23209551  0.28767535  0.49561746     1.59600
O79         O  0.20937963  0.25511963  0.05191751    -0.80000
O80         O  0.24827780  0.25272431  0.49289439    -1.90500
Cd81       Cd  0.23111914  0.23681307  0.45883374     1.59900
O82         O  0.20429117  0.29209396  0.03000542    -0.79900
O83         O  0.26629404  0.22529833  0.43309721    -0.78600
C84         C  0.29560668  0.31147483  0.49517465     0.83900
C85         C  0.30283733  0.22850690  0.04296381     0.83600
O86         O  0.30745310  0.23786171  0.45646337    -0.77500
C87         C  0.19807933  0.19483097  0.49138854     0.84400
O88         O  0.30820448  0.28990581  0.49294468    -0.77600
C89         C  0.19930307  0.27758059  0.05056933     0.84500
C90         C  0.19466937  0.28425185  0.44208743     0.84900
O91         O  0.20353403  0.29663844  0.46305749    -0.80100
O92         O  0.69123754  0.22785995  0.46154816    -0.77600
C93         C  0.70718387  0.22286043  0.04879352     0.83500
O94         O  0.72552479  0.31007689  0.48944769    -0.78700
O95         O  0.79898647  0.25679376  0.04449691    -0.80200
O96         O  0.79613255  0.20265232  0.47197854    -0.80000
O97         O  0.73278629  0.21672940  0.43809825    -0.78600
Zn98       Zn  0.70698777  0.24853504  0.49358696     1.55700
O99         O  0.79506911  0.20221687  0.01272165    -0.80000
Cd100      Cd  0.76790134  0.23205849  0.46031785     1.59700
Cd101      Cd  0.76350982  0.28670150  0.49007146     1.59600
O102        O  0.79217833  0.25565896  0.43445227    -0.80000
O103        O  0.75128776  0.25060998  0.49268163    -1.90500
Cd104      Cd  0.76987744  0.23323334  0.02376086     1.59900
O105        O  0.78897537  0.29320102  0.45468749    -0.79900
O106        O  0.73617015  0.22149634  0.05067359    -0.78600
C107        C  0.69686498  0.30559579  0.49030228     0.83900
C108        C  0.70391922  0.21679676  0.44114284     0.83600
O109        O  0.69422598  0.23255794  0.02757377    -0.77500
C110        C  0.80408950  0.19368027  0.49541609     0.84400
O111        O  0.68719708  0.28306960  0.49169801    -0.77600
C112        C  0.79845943  0.27901012  0.43533270     0.84500
C113        C  0.80440303  0.28023556  0.04256932     0.84900
O114        O  0.79201563  0.29436042  0.02432334    -0.80100
O115        O  0.68944268  0.76602844  0.00239004    -0.77600
C116        C  0.70633042  0.78172189  0.41413821     0.83500
O117        O  0.72627449  0.68955840  0.46960579    -0.78700
O118        O  0.79487578  0.74269209  0.41590530    -0.80200
O119        O  0.79389420  0.79457758  0.99800447    -0.80000
O120        O  0.72908038  0.77549603  0.02888449    -0.78600
Zn121      Zn  0.70608360  0.75141403  0.46842699     1.55700
O122        O  0.79773179  0.79645984  0.45051419    -0.80000
Cd123      Cd  0.76574621  0.76385269  0.00542718     1.59700
Cd124      Cd  0.76305843  0.71379330  0.47159077     1.59600
O125        O  0.79016915  0.73787295  0.02855091    -0.80000
O126        O  0.75023515  0.74989227  0.47081864    -1.90500
Cd127      Cd  0.76898612  0.76756173  0.43845026     1.59900
O128        O  0.78703698  0.70216125  0.00497459    -0.79900
O129        O  0.73539729  0.78235716  0.41285654    -0.78600
C130        C  0.69773226  0.69412022  0.46745736     0.83900
C131        C  0.70035748  0.77499171  0.02474463     0.83600
O132        O  0.69291822  0.77068458  0.43429561    -0.77500
C133        C  0.80435127  0.80559607  0.47410163     0.84400
O134        O  0.68796207  0.71665008  0.46619669    -0.77600
C135        C  0.79630279  0.71456517  0.02575737     0.84500
C136        C  0.80177220  0.71956939  0.41902684     0.84900
O137        O  0.79192339  0.70620806  0.43907956    -0.80100
O138        O  0.30473635  0.77046880  0.43793433    -0.77600
C139        C  0.29510480  0.76989247  0.02901494     0.83500
O140        O  0.26290365  0.68951018  0.46559458    -0.78700
O141        O  0.20141506  0.73841091  0.02728516    -0.80200
O142        O  0.20264005  0.80078224  0.45320947    -0.80000
O143        O  0.26415599  0.78520223  0.41533041    -0.78600
Zn144      Zn  0.28845488  0.74938454  0.46983700     1.55700
O145        O  0.20583461  0.79631504  0.00104473    -0.80000
Cd146      Cd  0.22818034  0.77064715  0.43881205     1.59700
Cd147      Cd  0.22802234  0.71522156  0.46862223     1.59600
O148        O  0.20042560  0.74878208  0.41360816    -0.80000
O149        O  0.24412825  0.75016748  0.47076479    -1.90500
Cd150      Cd  0.22988793  0.76337078  0.00714427     1.59900
O151        O  0.20118370  0.71123438  0.43431257    -0.79900
O152        O  0.26630027  0.77056167  0.03314107    -0.78600
C153        C  0.29177377  0.69192197  0.46476203     0.83900
C154        C  0.29310447  0.78331514  0.41807141     0.83600
O155        O  0.30581553  0.76335642  0.00563403    -0.77500
C156        C  0.19704652  0.80905740  0.47743685     0.84400
O157        O  0.30400375  0.71366714  0.46579863    -0.77600
C158        C  0.19235678  0.72576988  0.41481476     0.84500
C159        C  0.19426732  0.71552375  0.02321585     0.84900
O160        O  0.20456470  0.70329999  0.00262428    -0.80100
N161        N  0.99826691  0.34405978  0.28390674    -0.35700
N162        N  0.95597946  0.33980591  0.23822460    -0.56200
N163        N  0.00522885  0.34364990  0.19873312    -0.35700
N164        N  0.04750255  0.34871318  0.24434872    -0.56200
C165        C  0.97366631  0.33392147  0.29675469     0.27900
C166        C  0.02287277  0.33925032  0.30011856     0.27900
C167        C  0.98274150  0.33395065  0.18286841     0.27900
C168        C  0.03201802  0.33778523  0.18639138     0.27900
C169        C  0.93583291  0.34121851  0.25928612     0.36500
C170        C  0.93955125  0.34193300  0.21467777     0.36500
C171        C  0.06311699  0.35389069  0.26771003     0.36500
C172        C  0.06685734  0.35298782  0.22310251     0.36500
C173        C  0.98260775  0.32314728  0.32176169    -0.21000
C174        C  0.01371739  0.32641114  0.32383169    -0.21000
C175        C  0.99524584  0.32236462  0.15983451    -0.21000
C176        C  0.02641945  0.32453301  0.16220390    -0.21000
C177        C  0.90643457  0.34478739  0.24913274    -0.22000
C178        C  0.90882782  0.34542675  0.22074561    -0.22000
C179        C  0.09235278  0.36215167  0.26128540    -0.22000
C180        C  0.09471100  0.36161811  0.23289642    -0.22000
C181        C  0.94323808  0.33498516  0.28686405    -0.17400
C182        C  0.05323255  0.34670804  0.29435589    -0.17400
C183        C  0.06128142  0.34502717  0.19581473    -0.17400
C184        C  0.95119376  0.33579370  0.18842618    -0.17400
H185        H  0.96828169  0.31383057  0.33694366     0.15500
H186        H  0.02794701  0.32007158  0.34089985     0.15500
H187        H  0.98319185  0.31300821  0.14324314     0.15500
H188        H  0.04300880  0.31716043  0.14769735     0.15500
H189        H  0.88533324  0.34547137  0.26084574     0.13800
H190        H  0.88994179  0.34652514  0.20624181     0.13800
H191        H  0.11057956  0.36665292  0.27561806     0.13800
H192        H  0.11508860  0.36567480  0.22094009     0.13800
H193        H  0.99790264  0.35550905  0.26631378     0.37500
H194        H  0.00230189  0.35552567  0.21560225     0.27100
N195        N  0.99970613  0.65033666  0.26375016    -0.35700
N196        N  0.95082819  0.65465719  0.22394410    -0.56200
N197        N  0.99703009  0.65300877  0.18112835    -0.35700
N198        N  0.04654564  0.64697303  0.22117548    -0.56200
C199        C  0.97515595  0.64789547  0.28047850     0.27900
C200        C  0.02459031  0.64387107  0.27876515     0.27900
C201        C  0.97125518  0.65097231  0.16584054     0.27900
C202        C  0.02084069  0.64711050  0.16452900     0.27900
C203        C  0.93497566  0.66076874  0.24690992     0.36500
C204        C  0.93335434  0.66177929  0.20221199     0.36500
C205        C  0.06370386  0.65349846  0.24328342     0.36500
C206        C  0.06222947  0.65454575  0.19850887     0.36500
C207        C  0.98441302  0.63917287  0.30632722    -0.21000
C208        C  0.01572349  0.63654534  0.30520928    -0.21000
C209        C  0.97868679  0.64331191  0.13925041    -0.21000
C210        C  0.01004827  0.64082246  0.13843841    -0.21000
C211        C  0.90671912  0.67086767  0.23978369    -0.22000
C212        C  0.90569875  0.67153067  0.21134533    -0.22000
C213        C  0.09083163  0.66447710  0.23465790    -0.22000
C214        C  0.08982169  0.66527227  0.20619904    -0.22000
C215        C  0.94571635  0.65716671  0.27419791    -0.17400
C216        C  0.05478680  0.64993462  0.27113238    -0.17400
C217        C  0.05185454  0.65167521  0.17100842    -0.17400
C218        C  0.94193548  0.65911855  0.17425235    -0.17400
H219        H  0.97031995  0.63637195  0.32452653     0.15500
H220        H  0.03052110  0.63158195  0.32242654     0.15500
H221        H  0.96324954  0.64090466  0.12191224     0.15500
H222        H  0.02352284  0.63625904  0.12032132     0.15500
H223        H  0.88890286  0.67735532  0.25360915     0.13800
H224        H  0.88693630  0.67863484  0.19884922     0.13800
H225        H  0.10910048  0.67164987  0.24751231     0.13800
H226        H  0.10720963  0.67310223  0.19272157     0.13800
H227        H  0.00016570  0.66065137  0.24541583     0.27100
H228        H  0.99873832  0.66222294  0.19995311     0.27100
N229        N  0.49391152  0.83870633  0.17849820    -0.35700
N230        N  0.54455552  0.83997543  0.21747596    -0.56200
N231        N  0.50193604  0.84336456  0.26392504    -0.35700
N232        N  0.45111886  0.84079752  0.22491555    -0.56200
C233        C  0.51738696  0.83142806  0.16204807     0.27900
C234        C  0.46782785  0.83097133  0.16609666     0.27900
C235        C  0.52818625  0.83796020  0.27772757     0.27900
C236        C  0.47852938  0.83950451  0.28184793     0.27900
C237        C  0.56076396  0.84093407  0.19369003     0.36500
C238        C  0.56502647  0.84193226  0.23830727     0.36500
C239        C  0.43067705  0.84065746  0.20384657     0.36500
C240        C  0.43481422  0.84359749  0.24851755     0.36500
C241        C  0.50605295  0.81972521  0.13860621    -0.21000
C242        C  0.47486326  0.81933213  0.14119900    -0.21000
C243        C  0.52141260  0.83186864  0.30506501    -0.21000
C244        C  0.49017819  0.83285835  0.30765690    -0.21000
C245        C  0.59162967  0.84400855  0.19941540    -0.22000
C246        C  0.59434035  0.84455582  0.22772477    -0.22000
C247        C  0.40127973  0.84375924  0.21403510    -0.22000
C248        C  0.40387824  0.84553733  0.24232001    -0.22000
C249        C  0.54886244  0.83499445  0.16738544    -0.17400
C250        C  0.43767568  0.83431831  0.17616225    -0.17400
C251        C  0.44685668  0.84122234  0.27568716    -0.17400
C252        C  0.55818758  0.83799738  0.26654980    -0.17400
H253        H  0.51891198  0.81193858  0.12150170     0.15500
H254        H  0.45917960  0.81120812  0.12639314     0.15500
H255        H  0.53728127  0.82675993  0.32142539     0.15500
H256        H  0.47749105  0.82865397  0.32638175     0.15500
H257        H  0.61039220  0.84448386  0.18477363     0.13800
H258        H  0.61557745  0.84566786  0.23921775     0.13800
H259        H  0.38007880  0.84363956  0.20240429     0.13800
H260        H  0.38502670  0.84711080  0.25676181     0.13800
H261        H  0.49547382  0.84992717  0.19599505     0.27100
H262        H  0.50017017  0.85042776  0.24389649     0.27100
N263        N  0.49952997  0.16618943  0.28497070    -0.35700
N264        N  0.54892566  0.16262662  0.24517862    -0.56200
N265        N  0.50302603  0.16513651  0.20151720    -0.35700
N266        N  0.45347471  0.16639314  0.24095111    -0.56200
C267        C  0.52320301  0.16078085  0.30209995     0.27900
C268        C  0.47347174  0.16353408  0.29975278     0.27900
C269        C  0.52860529  0.16077988  0.18667959     0.27900
C270        C  0.47888326  0.16142338  0.18452786     0.27900
C271        C  0.56551337  0.16699574  0.26828013     0.36500
C272        C  0.56722393  0.16834814  0.22350251     0.36500
C273        C  0.43678356  0.17503430  0.26239360     0.36500
C274        C  0.43849036  0.17366067  0.21773577     0.36500
C275        C  0.51205100  0.15445907  0.32813444    -0.21000
C276        C  0.48060543  0.15616449  0.32664076    -0.21000
C277        C  0.52073635  0.15373532  0.15997891    -0.21000
C278        C  0.48923908  0.15404734  0.15864853    -0.21000
C279        C  0.59490347  0.17443729  0.26126078    -0.22000
C280        C  0.59592421  0.17546913  0.23283390    -0.22000
C281        C  0.41082529  0.18742507  0.25281503    -0.22000
C282        C  0.41185981  0.18647497  0.22443700    -0.22000
C283        C  0.55447565  0.16425685  0.29563924    -0.17400
C284        C  0.44400997  0.17084689  0.29051079    -0.17400
C285        C  0.44850148  0.16860676  0.19057803    -0.17400
C286        C  0.55838839  0.16707835  0.19538862    -0.17400
H287        H  0.52524935  0.14990826  0.34651073     0.15500
H288        H  0.46484220  0.15325564  0.34366098     0.15500
H289        H  0.53612203  0.15006460  0.14288555     0.15500
H290        H  0.47558139  0.15069045  0.14031528     0.15500
H291        H  0.61347272  0.17911483  0.27515224     0.13800
H292        H  0.61547284  0.18103069  0.22048427     0.13800
H293        H  0.39299052  0.19617373  0.26501281     0.13800
H294        H  0.39509284  0.19447649  0.21036119     0.13800
H295        H  0.50116182  0.17502869  0.26580226     0.27100
H296        H  0.50241872  0.17465877  0.22019841     0.27100
C297        C  0.36601789  0.78138281  0.07436043    -0.11000
C298        C  0.35284077  0.79463551  0.09630125     0.11600
C299        C  0.32097223  0.79899088  0.09675156    -0.02800
C300        C  0.30314055  0.79010746  0.07468337    -0.05500
C301        C  0.31615948  0.77738102  0.05197300    -0.16300
C302        C  0.34834698  0.77253765  0.05203251     0.02600
C303        C  0.37321241  0.80478838  0.11802639     0.12600
C304        C  0.30604328  0.81349106  0.12021952     0.63200
H305        H  0.27876808  0.79380243  0.07476012     0.12600
C306        C  0.36443527  0.75825823  0.02897106     0.55300
H307        H  0.39056932  0.77849320  0.07469325     0.08400
C308        C  0.38338123  0.79000160  0.14075770    -0.05400
C309        C  0.40248905  0.80115316  0.16056614    -0.06100
C310        C  0.41238178  0.82610732  0.15770103    -0.15700
C311        C  0.40202384  0.84095379  0.13508403    -0.01300
C312        C  0.38238111  0.82995615  0.11556691    -0.08800
C313        C  0.37632680  0.76212070  0.14299956     0.65400
H314        H  0.41158268  0.78997350  0.17756119     0.10900
C315        C  0.41179948  0.86815461  0.13159768     0.63800
H316        H  0.37430629  0.84079251  0.09790315     0.08200
F317        F  0.35062923  0.73514017  0.02519678    -0.19200
F318        F  0.39498532  0.75382918  0.03498049    -0.15500
F319        F  0.36325196  0.77210517  0.00459658    -0.18900
F320        F  0.31604444  0.83812747  0.11971398    -0.22300
F321        F  0.31365520  0.80269910  0.14547795    -0.23800
F322        F  0.27444615  0.81367622  0.11805380    -0.17800
F323        F  0.39817746  0.87938382  0.10869392    -0.20300
F324        F  0.44315833  0.86955567  0.12820997    -0.21400
F325        F  0.40346497  0.88159972  0.15484494    -0.18600
F326        F  0.38313113  0.75272321  0.16914822    -0.18700
F327        F  0.39373956  0.74923774  0.12380739    -0.22500
F328        F  0.34568389  0.75761911  0.13796972    -0.24100
C329        C  0.39029200  0.84690308  0.33574059    -0.11000
C330        C  0.38320146  0.82146376  0.34038910     0.11600
C331        C  0.39726553  0.80267411  0.32399862    -0.02800
C332        C  0.41795173  0.81008102  0.30325453    -0.05500
C333        C  0.42492898  0.83544818  0.29849793    -0.16300
C334        C  0.41139137  0.85424179  0.31512610     0.02600
C335        C  0.35964976  0.81488851  0.36141746     0.12600
C336        C  0.39005524  0.77493804  0.32804028     0.63200
H337        H  0.42878837  0.79610668  0.29026366     0.12600
C338        C  0.41945730  0.88174192  0.31108469     0.55300
H339        H  0.37906660  0.86093979  0.34836387     0.08400
C340        C  0.36683133  0.81128667  0.38972713    -0.05400
C341        C  0.34408281  0.80169346  0.40751941    -0.06100
C342        C  0.31429947  0.79614137  0.39808873    -0.15700
C343        C  0.30659467  0.80190476  0.36999916    -0.01300
C344        C  0.32962890  0.81112637  0.35222994    -0.08800
C345        C  0.39839477  0.81745772  0.40100056     0.65400
H346        H  0.34962420  0.79817890  0.42908465     0.10900
C347        C  0.27480631  0.79765339  0.35818715     0.63800
H348        H  0.32470696  0.81480179  0.33056049     0.08200
F349        F  0.45041263  0.88510056  0.31573380    -0.19200
F350        F  0.40348335  0.89706304  0.32914490    -0.15500
F351        F  0.41253853  0.88926606  0.28430431    -0.18900
F352        F  0.35962485  0.77060181  0.32194359    -0.22300
F353        F  0.39572610  0.76776036  0.35515648    -0.23800
F354        F  0.40767595  0.75985680  0.31099765    -0.17800
F355        F  0.25382986  0.81277101  0.37167305    -0.20300
F356        F  0.26685041  0.77268458  0.36139799    -0.21400
F357        F  0.27324027  0.80344281  0.33017302    -0.18600
F358        F  0.40039713  0.81301286  0.42926732    -0.18700
F359        F  0.40472300  0.84258079  0.39627416    -0.22500
F360        F  0.42038333  0.80297276  0.38804354    -0.24100
C361        C  0.11733075  0.65203729  0.11876803    -0.11000
C362        C  0.11157561  0.67493066  0.10508819     0.11600
C363        C  0.08507250  0.68907200  0.11151003    -0.02800
C364        C  0.06641124  0.68076856  0.13332506    -0.05500
C365        C  0.07271544  0.65836036  0.14780874    -0.16300
C366        C  0.09790887  0.64319289  0.13992311     0.02600
C367        C  0.13406007  0.68400828  0.08448167     0.12600
C368        C  0.07642645  0.71263617  0.09523324     0.63200
H369        H  0.04656038  0.69170890  0.13933550     0.12600
C370        C  0.10368072  0.61759724  0.15312681     0.55300
H371        H  0.13736767  0.64129568  0.11285234     0.08400
C372        C  0.15918887  0.69900681  0.09240919    -0.05400
C373        C  0.17842304  0.70861424  0.07163354    -0.06100
C374        C  0.17379871  0.70307806  0.04350850    -0.15700
C375        C  0.14921844  0.68716371  0.03570154    -0.01300
C376        C  0.12966439  0.67789876  0.05656105    -0.08800
C377        C  0.16592790  0.70442786  0.12271572     0.65400
H378        H  0.19755266  0.72045085  0.07725070     0.10900
C379        C  0.14288346  0.68063397  0.00560871     0.63800
H380        H  0.11043616  0.66604271  0.05127455     0.08200
F381        F  0.11101342  0.62014346  0.18080947    -0.19200
F382        F  0.12758822  0.60503432  0.14038416    -0.15500
F383        F  0.07770104  0.60296413  0.15081576    -0.18900
F384        F  0.07208843  0.70662982  0.06767270    -0.22300
F385        F  0.09935771  0.73037840  0.09713634    -0.23800
F386        F  0.04960126  0.72336019  0.10494242    -0.17800
F387        F  0.16648273  0.66603306  0.99534655    -0.20300
F388        F  0.14023576  0.70241206  0.98990946    -0.21400
F389        F  0.11598436  0.66719227  0.00268889    -0.18600
F390        F  0.19064673  0.72041354  0.12572192    -0.18700
F391        F  0.17262853  0.68216038  0.13642292    -0.22500
F392        F  0.14090929  0.71557781  0.13518988    -0.24100
C393        C  0.12007226  0.65657666  0.32305167    -0.11000
C394        C  0.11228317  0.67977189  0.33485093     0.11600
C395        C  0.08562649  0.69268692  0.32610269    -0.02800
C396        C  0.06762390  0.68187979  0.30538837    -0.05500
C397        C  0.07531132  0.65869502  0.29348125    -0.16300
C398        C  0.10163681  0.64544088  0.30270933     0.02600
C399        C  0.13306436  0.69075495  0.35556645     0.12600
C400        C  0.07651101  0.71795123  0.33822661     0.63200
H401        H  0.04739638  0.69165006  0.29791528     0.12600
C402        C  0.11113914  0.61966194  0.29242606     0.55300
H403        H  0.14070942  0.64701153  0.32995215     0.08400
C404        C  0.13198527  0.68374590  0.38383248    -0.05400
C405        C  0.15135243  0.69616077  0.40242675    -0.06100
C406        C  0.17170645  0.71507143  0.39359058    -0.15700
C407        C  0.17296518  0.72174477  0.36505516    -0.01300
C408        C  0.15365249  0.70916932  0.34648420    -0.08800
C409        C  0.11055011  0.66327778  0.39425489     0.65400
H410        H  0.15067748  0.69115712  0.42422402     0.10900
C411        C  0.19498164  0.74140382  0.35395336     0.63800
H412        H  0.15405499  0.71384510  0.32458861     0.08200
F413        F  0.11266680  0.60318217  0.31472116    -0.19200
F414        F  0.13980304  0.62124792  0.28039099    -0.15500
F415        F  0.09113098  0.60974297  0.27322754    -0.18900
F416        F  0.09813052  0.73585471  0.33137158    -0.22300
F417        F  0.07443079  0.71616178  0.36676121    -0.23800
F418        F  0.04844030  0.72613995  0.32826215    -0.17800
F419        F  0.22449525  0.73529247  0.36192884    -0.20300
F420        F  0.18719364  0.76482548  0.36410386    -0.21400
F421        F  0.19438198  0.74289294  0.32528206    -0.18600
F422        F  0.11306372  0.65962783  0.42262364    -0.18700
F423        F  0.11744890  0.64076996  0.38150063    -0.22500
F424        F  0.08053522  0.66966515  0.38839148    -0.24100
C425        C  0.67803302  0.81103589  0.34561917    -0.11000
C426        C  0.64655498  0.81204203  0.35060996     0.11600
C427        C  0.63481969  0.80416845  0.37649876    -0.02800
C428        C  0.65537187  0.79537216  0.39676870    -0.05500
C429        C  0.68715105  0.79364669  0.39186424    -0.16300
C430        C  0.69882319  0.80220647  0.36578840     0.02600
C431        C  0.62616338  0.81961976  0.32750733     0.12600
C432        C  0.60059974  0.80409986  0.38230376     0.63200
H433        H  0.64637246  0.78908917  0.41652050     0.12600
C434        C  0.73268469  0.80176929  0.35852317     0.55300
H435        H  0.68606774  0.81689181  0.32534807     0.08400
C436        C  0.61983366  0.84513054  0.32105643    -0.05400
C437        C  0.59819757  0.85055717  0.30022962    -0.06100
C438        C  0.58375297  0.83127844  0.28554418    -0.15700
C439        C  0.59197816  0.80585138  0.29052709    -0.01300
C440        C  0.61310779  0.80046305  0.31167001    -0.08800
C441        C  0.63547089  0.86637596  0.33637897     0.65400
H442        H  0.59178747  0.86983686  0.29564569     0.10900
C443        C  0.57830333  0.78455885  0.27374814     0.63800
H444        H  0.61925341  0.78115683  0.31644846     0.08200
F445        F  0.73821731  0.81094311  0.33205580    -0.19200
F446        F  0.74354599  0.77735800  0.35962933    -0.15500
F447        F  0.74882418  0.81662800  0.37682571    -0.18900
F448        F  0.58646981  0.78639134  0.36585231    -0.22300
F449        F  0.58812484  0.82749230  0.37660529    -0.23800
F450        F  0.59428858  0.79828852  0.40973632    -0.17800
F451        F  0.58971104  0.76134311  0.28195605    -0.20300
F452        F  0.58520415  0.78794073  0.24600609    -0.21400
F453        F  0.54687644  0.78410145  0.27695878    -0.18600
F454        F  0.62668488  0.88971141  0.32617704    -0.18700
F455        F  0.66685809  0.86435377  0.33348753    -0.22500
F456        F  0.62811796  0.86527938  0.36421996    -0.24100
C457        C  0.66502251  0.80119146  0.09149303    -0.11000
C458        C  0.63409712  0.80179374  0.08407874     0.11600
C459        C  0.62498125  0.79469025  0.05721718    -0.02800
C460        C  0.64743358  0.78611061  0.03875399    -0.05500
C461        C  0.67870338  0.78485015  0.04606796    -0.16300
C462        C  0.68774992  0.79275228  0.07311295     0.02600
C463        C  0.61179762  0.80986319  0.10523517     0.12600
C464        C  0.59181207  0.79678845  0.04788520     0.63200
H465        H  0.64048751  0.78059495  0.01814531     0.12600
C466        C  0.72079874  0.79224314  0.08316777     0.55300
H467        H  0.67106793  0.80721507  0.11218779     0.08400
C468        C  0.60100271  0.79302102  0.12585409    -0.05400
C469        C  0.58054040  0.80212778  0.14580511    -0.06100
C470        C  0.57087721  0.82728140  0.14563405    -0.15700
C471        C  0.58167489  0.84412848  0.12511581    -0.01300
C472        C  0.60229399  0.83508384  0.10516192    -0.08800
C473        C  0.61111040  0.76564092  0.12682722     0.65400
H474        H  0.57180932  0.78971259  0.16183418     0.10900
C475        C  0.57154451  0.87142588  0.12458830     0.63800
H476        H  0.61128271  0.84760526  0.08935924     0.08200
F477        F  0.72351494  0.80033318  0.11028761    -0.19200
F478        F  0.73846927  0.80801724  0.06685710    -0.15500
F479        F  0.73217433  0.76794924  0.08214348    -0.18900
F480        F  0.58328892  0.82183770  0.04694166    -0.22300
F481        F  0.57285339  0.78412245  0.06613445    -0.23800
F482        F  0.58742855  0.78673820  0.02177972    -0.17800
F483        F  0.57980803  0.88286009  0.14912636    -0.20300
F484        F  0.54010755  0.87279065  0.12153215    -0.21400
F485        F  0.58481953  0.88465442  0.10291073    -0.18600
F486        F  0.59673624  0.75243246  0.14793527    -0.18700
F487        F  0.64232022  0.76420589  0.13127850    -0.22500
F488        F  0.60417054  0.75403364  0.10206649    -0.24100
C489        C  0.83419582  0.69285662  0.35302686    -0.11000
C490        C  0.86426720  0.68751386  0.36136032     0.11600
C491        C  0.87373576  0.69230103  0.38891249    -0.02800
C492        C  0.85231377  0.70248350  0.40741251    -0.05500
C493        C  0.82236521  0.70798532  0.39892779    -0.16300
C494        C  0.81278571  0.70279777  0.37161271     0.02600
C495        C  0.88580193  0.67871354  0.34001014     0.12600
C496        C  0.90609184  0.68650306  0.39875195     0.63200
H497        H  0.85882638  0.70655689  0.42858852     0.12600
C498        C  0.77999227  0.70737803  0.36247777     0.55300
H499        H  0.82775653  0.68936758  0.33170567     0.08400
C500        C  0.88616842  0.65352878  0.33073899    -0.05400
C501        C  0.90640642  0.64702041  0.30934579    -0.06100
C502        C  0.92585716  0.66493813  0.29738755    -0.15700
C503        C  0.92577005  0.69005264  0.30692457    -0.01300
C504        C  0.90514593  0.69661907  0.32788442    -0.08800
C505        C  0.86482734  0.63386684  0.34289871     0.65400
H506        H  0.90695481  0.62800745  0.30144049     0.10900
C507        C  0.94740181  0.70973199  0.29507853     0.63800
H508        H  0.90389670  0.71584958  0.33509086     0.08200
F509        F  0.77508035  0.69994327  0.33539355    -0.19200
F510        F  0.77313630  0.73267662  0.36425285    -0.15500
F511        F  0.76032624  0.69395973  0.37945275    -0.18900
F512        F  0.92713798  0.69988261  0.38323915    -0.22300
F513        F  0.91199734  0.66109220  0.39605074    -0.23800
F514        F  0.91026814  0.69282566  0.42629260    -0.17800
F515        F  0.94177660  0.71323533  0.26711545    -0.20300
F516        F  0.97737830  0.70194164  0.29869103    -0.21400
F517        F  0.94399183  0.73274277  0.30800746    -0.18600
F518        F  0.87141034  0.61005705  0.33306837    -0.18700
F519        F  0.83492826  0.63963386  0.33588387    -0.22500
F520        F  0.86750410  0.63322389  0.37144939    -0.24100
C521        C  0.85625722  0.67504898  0.06365178    -0.11000
C522        C  0.85249007  0.68394500  0.09069375     0.11600
C523        C  0.82919917  0.70160286  0.09666040    -0.02800
C524        C  0.81042532  0.71007194  0.07493033    -0.05500
C525        C  0.81467918  0.70190088  0.04756593    -0.16300
C526        C  0.83766138  0.68367688  0.04173573     0.02600
C527        C  0.87533817  0.67650579  0.11177365     0.12600
C528        C  0.82493612  0.71220227  0.12561881     0.63200
H529        H  0.79276350  0.72389401  0.07903786     0.12600
C530        C  0.84367701  0.67416724  0.01255917     0.55300
H531        H  0.87463629  0.66181633  0.05976625     0.08400
C532        C  0.87417163  0.65317383  0.12602249    -0.05400
C533        C  0.89668093  0.64794808  0.14608921    -0.06100
C534        C  0.91926108  0.66563323  0.15256102    -0.15700
C535        C  0.91974068  0.68927462  0.13893191    -0.01300
C536        C  0.89837704  0.69386878  0.11783887    -0.08800
C537        C  0.84914908  0.63415386  0.12029549     0.65400
H538        H  0.89671422  0.63015480  0.15716453     0.10900
C539        C  0.94165157  0.70994269  0.14755956     0.63800
H540        H  0.89874107  0.71150992  0.10646343     0.08200
F541        F  0.81869769  0.66070980  0.00326883    -0.19200
F542        F  0.86894684  0.65840547  0.01154974    -0.15500
F543        F  0.84907045  0.69424308  0.99483718    -0.18900
F544        F  0.84968892  0.72703807  0.13247957    -0.22300
F545        F  0.82245053  0.69286899  0.14478334    -0.23800
F546        F  0.79880453  0.72688844  0.12745278    -0.17800
F547        F  0.97159374  0.70228458  0.14375894    -0.20300
F548        F  0.93710710  0.71551912  0.17522139    -0.21400
F549        F  0.93712243  0.73182221  0.13232764    -0.18600
F550        F  0.85149322  0.61329670  0.13753170    -0.18700
F551        F  0.85109325  0.62607470  0.09318808    -0.22500
F552        F  0.82075041  0.64500650  0.12451228    -0.24100
C553        C  0.67447545  0.20489414  0.11959792    -0.11000
C554        C  0.64570564  0.19589207  0.11174614     0.11600
C555        C  0.63723409  0.19554305  0.08349172    -0.02800
C556        C  0.65852066  0.20378036  0.06371671    -0.05500
C557        C  0.68754286  0.21281046  0.07133863    -0.16300
C558        C  0.69586081  0.21328395  0.09986483     0.02600
C559        C  0.62426905  0.18806342  0.13377665     0.12600
C560        C  0.60559749  0.18709979  0.07433998     0.63200
H561        H  0.65238557  0.20354323  0.04196431     0.12600
C562        C  0.72656523  0.22314015  0.10977129     0.55300
H563        H  0.67992706  0.20533562  0.14150179     0.08400
C564        C  0.62560135  0.16387874  0.14617234    -0.05400
C565        C  0.60349243  0.15751466  0.16613969    -0.06100
C566        C  0.58076032  0.17470962  0.17392696    -0.15700
C567        C  0.58013653  0.19921729  0.16220866    -0.01300
C568        C  0.60225329  0.20553209  0.14234285    -0.08800
C569        C  0.65019917  0.14500611  0.13827775     0.65400
H570        H  0.60369545  0.13910199  0.17588954     0.10900
C571        C  0.55619008  0.21855639  0.17056374     0.63800
H572        H  0.60225957  0.22406777  0.13286649     0.08200
F573        F  0.72812030  0.22438336  0.13840939    -0.19200
F574        F  0.73126198  0.24711107  0.09938668    -0.15500
F575        F  0.74978200  0.20736696  0.10097077    -0.18900
F576        F  0.58368739  0.20338650  0.08455960    -0.22300
F577        F  0.59976889  0.16311354  0.08417512    -0.23800
F578        F  0.60283426  0.18679506  0.04574473    -0.17800
F579        F  0.56178627  0.24187828  0.15869840    -0.20300
F580        F  0.55613796  0.22141094  0.19904025    -0.21400
F581        F  0.52754002  0.21083131  0.16201973    -0.18600
F582        F  0.64730756  0.12265704  0.15292515    -0.18700
F583        F  0.67881298  0.15475588  0.14390310    -0.22500
F584        F  0.64824097  0.13970465  0.11032239    -0.24100
C585        C  0.67044044  0.19292313  0.37326213    -0.11000
C586        C  0.64185206  0.18455337  0.38237218     0.11600
C587        C  0.63527444  0.18345405  0.41100365    -0.02800
C588        C  0.65657220  0.19363903  0.42962453    -0.05500
C589        C  0.68442702  0.20396308  0.42041948    -0.16300
C590        C  0.69211352  0.20271948  0.39175002     0.02600
C591        C  0.61849630  0.17915117  0.36107679     0.12600
C592        C  0.60605626  0.17140100  0.42165423     0.63200
H593        H  0.65147712  0.19379214  0.45159507     0.12600
C594        C  0.72219912  0.21261346  0.38018569     0.55300
H595        H  0.67498917  0.19272775  0.35118964     0.08400
C596        C  0.60029527  0.19865337  0.34953619    -0.05400
C597        C  0.57880952  0.19252828  0.32905089    -0.06100
C598        C  0.57628005  0.16798382  0.31884825    -0.15700
C599        C  0.59556378  0.14869072  0.32951987    -0.01300
C600        C  0.61614744  0.15464324  0.35087246    -0.08800
C601        C  0.60441408  0.22592106  0.35810072     0.65400
H602        H  0.56442307  0.20707120  0.32002998     0.10900
C603        C  0.59615652  0.12189317  0.31893830     0.63800
H604        H  0.63103498  0.14012127  0.35930203     0.08200
F605        F  0.72341055  0.21104594  0.35156321    -0.19200
F606        F  0.74635101  0.19859304  0.39066850    -0.15500
F607        F  0.72577977  0.23762266  0.38719069    -0.18900
F608        F  0.60541092  0.14643601  0.41383063    -0.22300
F609        F  0.58074985  0.18359878  0.41072646    -0.23800
F610        F  0.60409436  0.17228682  0.45028541    -0.17800
F611        F  0.62478650  0.11690300  0.30798955    -0.20300
F612        F  0.57454166  0.11730582  0.29869915    -0.21400
F613        F  0.59089735  0.10548120  0.34078537    -0.18600
F614        F  0.58410399  0.24180160  0.34451431    -0.18700
F615        F  0.63374197  0.23375669  0.35171281    -0.22500
F616        F  0.59973832  0.22836151  0.38629029    -0.24100
C617        C  0.83723128  0.31449419  0.10387630    -0.11000
C618        C  0.86836394  0.30864452  0.10105866     0.11600
C619        C  0.87871677  0.29410492  0.07842618    -0.02800
C620        C  0.85703768  0.28556004  0.05922266    -0.05500
C621        C  0.82590273  0.29126705  0.06221995    -0.16300
C622        C  0.81564666  0.30607877  0.08454919     0.02600
C623        C  0.88928643  0.31642185  0.12332239     0.12600
C624        C  0.91231915  0.28725898  0.07495578     0.63200
H625        H  0.86410211  0.27397853  0.04195852     0.12600
C626        C  0.78195725  0.31222160  0.08817555     0.55300
H627        H  0.82996891  0.32534623  0.12163504     0.08400
C628        C  0.90157994  0.34095670  0.12455359    -0.05400
C629        C  0.92176183  0.34662725  0.14627520    -0.06100
C630        C  0.92946601  0.32855930  0.16641580    -0.15700
C631        C  0.91717651  0.30398962  0.16511413    -0.01300
C632        C  0.89674112  0.29848421  0.14363184    -0.08800
C633        C  0.89306858  0.36100822  0.10329609     0.65400
H634        H  0.93159914  0.36523712  0.14787343     0.10900
C635        C  0.92623833  0.28353438  0.18577757     0.63800
H636        H  0.88668320  0.27994103  0.14217301     0.08200
F637        F  0.77658264  0.32588903  0.11200432    -0.19200
F638        F  0.76530593  0.29020188  0.08986955    -0.15500
F639        F  0.77171429  0.32623901  0.06574412    -0.18900
F640        F  0.92147980  0.27144167  0.09627833    -0.22300
F641        F  0.93010886  0.30870634  0.07535101    -0.23800
F642        F  0.91768743  0.27511197  0.05012685    -0.17800
F643        F  0.91794128  0.29040366  0.21229784    -0.20300
F644        F  0.95753262  0.27970311  0.18489939    -0.21400
F645        F  0.91216123  0.26087348  0.18000222    -0.18600
F646        F  0.90976879  0.38282524  0.10693140    -0.18700
F647        F  0.86235760  0.36689880  0.10576211    -0.22500
F648        F  0.89860079  0.35241841  0.07677961    -0.24100
C649        C  0.88953682  0.29601965  0.33156041    -0.11000
C650        C  0.87361933  0.31498043  0.34556398     0.11600
C651        C  0.87956581  0.34056186  0.33928467    -0.02800
C652        C  0.90219154  0.34624030  0.31954098    -0.05500
C653        C  0.91821536  0.32721946  0.30570647    -0.16300
C654        C  0.91109643  0.30161881  0.31096825     0.02600
C655        C  0.85272415  0.30723518  0.36817859     0.12600
C656        C  0.86228515  0.36171327  0.35341710     0.63200
H657        H  0.90794141  0.36563280  0.31495754     0.12600
C658        C  0.92538778  0.27947042  0.29593106     0.55300
H659        H  0.88507457  0.27650940  0.33684904     0.08400
C660        C  0.82384775  0.29615834  0.36299512    -0.05400
C661        C  0.80659238  0.28746820  0.38568002    -0.06100
C662        C  0.81723114  0.28982079  0.41296468    -0.15700
C663        C  0.84601986  0.30099121  0.41815244    -0.01300
C664        C  0.86348107  0.30929233  0.39546067    -0.08800
C665        C  0.81130468  0.29353389  0.33376136     0.65400
H666        H  0.78460533  0.27861675  0.38232723     0.10900
C667        C  0.85876276  0.30318855  0.44735329     0.63800
H668        H  0.88601420  0.31718012  0.39875506     0.08200
F669        F  0.90237110  0.26513301  0.28433343    -0.19200
F670        F  0.94138888  0.26473104  0.31476041    -0.15500
F671        F  0.94513725  0.28641889  0.27490394    -0.18900
F672        F  0.86917374  0.36197312  0.38137108    -0.22300
F673        F  0.83113586  0.35835574  0.35012048    -0.23800
F674        F  0.86980905  0.38499185  0.34236277    -0.17800
F675        F  0.85987100  0.27967618  0.45979128    -0.20300
F676        F  0.84032993  0.31888750  0.46287216    -0.21400
F677        F  0.88807107  0.31303364  0.44744701    -0.18600
F678        F  0.78196122  0.28375626  0.33373439    -0.18700
F679        F  0.82969572  0.27759858  0.31853196    -0.22500
F680        F  0.81033308  0.31682210  0.32087249    -0.24100
C681        C  0.36015521  0.19370411  0.39879902    -0.11000
C682        C  0.35418081  0.20063364  0.37130175     0.11600
C683        C  0.32736252  0.21431636  0.36453721    -0.02800
C684        C  0.30828809  0.22231023  0.38624636    -0.05500
C685        C  0.31529838  0.21673511  0.41405121    -0.16300
C686        C  0.34111815  0.20151153  0.42050051     0.02600
C687        C  0.37704794  0.19352685  0.35025950     0.12600
C688        C  0.31891182  0.22014798  0.33460938     0.63200
H689        H  0.28799827  0.23336505  0.38171894     0.12600
C690        C  0.34832442  0.19300911  0.44995409     0.55300
H691        H  0.38046742  0.18260647  0.40314648     0.08400
C692        C  0.40369769  0.20808330  0.34582705    -0.05400
C693        C  0.42499365  0.19986785  0.32612931    -0.06100
C694        C  0.42069519  0.17746168  0.31153966    -0.15700
C695        C  0.39454001  0.16246585  0.31660763    -0.01300
C696        C  0.37291639  0.17092342  0.33599335    -0.08800
C697        C  0.40976577  0.23197341  0.36205065     0.65400
H698        H  0.44536048  0.21082240  0.32192890     0.10900
C699        C  0.38991674  0.13746937  0.30216389     0.63800
H700        H  0.35265341  0.15990232  0.34036757     0.08200
F701        F  0.37143261  0.17512139  0.45064186    -0.19200
F702        F  0.32256757  0.18245329  0.46191166    -0.15500
F703        F  0.35780075  0.21325622  0.46555103    -0.18900
F704        F  0.31365159  0.19794162  0.32067425    -0.22300
F705        F  0.34240451  0.23297700  0.32161564    -0.23800
F706        F  0.29271174  0.23478994  0.33273826    -0.17800
F707        F  0.36480680  0.12468617  0.31254597    -0.20300
F708        F  0.41547794  0.12242173  0.30595127    -0.21400
F709        F  0.38525365  0.14128057  0.27411983    -0.18600
F710        F  0.43655593  0.24361458  0.35368118    -0.18700
F711        F  0.41245984  0.22631651  0.38996085    -0.22500
F712        F  0.38596327  0.24884006  0.35829339    -0.24100
C713        C  0.34755006  0.22189202  0.10972394    -0.11000
C714        C  0.36705239  0.20179250  0.10340151     0.11600
C715        C  0.36580659  0.19058738  0.07683257    -0.02800
C716        C  0.34500776  0.20028118  0.05718271    -0.05500
C717        C  0.32531548  0.22017561  0.06374222    -0.16300
C718        C  0.32683010  0.23151220  0.09012033     0.02600
C719        C  0.38873114  0.19313591  0.12508416     0.12600
C720        C  0.38580257  0.16821100  0.06948080     0.63200
H721        H  0.34328507  0.19193737  0.03681379     0.12600
C722        C  0.30635238  0.25350817  0.09747088     0.55300
H723        H  0.34849518  0.22981731  0.13033077     0.08400
C724        C  0.41488374  0.20737399  0.13227147    -0.05400
C725        C  0.43415121  0.19822867  0.15332624    -0.06100
C726        C  0.42805496  0.17553394  0.16715592    -0.15700
C727        C  0.40236088  0.16099026  0.15958887    -0.01300
C728        C  0.38267426  0.17037582  0.13888479    -0.08800
C729        C  0.42215768  0.23234672  0.11828409     0.65400
H730        H  0.45386430  0.20905672  0.15974485     0.10900
C731        C  0.39615686  0.13558940  0.17294554     0.63800
H732        H  0.36221302  0.16009773  0.13339831     0.08200
F733        F  0.31360498  0.26351527  0.12306337    -0.19200
F734        F  0.27637189  0.24538427  0.09830546    -0.15500
F735        F  0.30928047  0.27240754  0.07776118    -0.18900
F736        F  0.37651710  0.14734139  0.08446651    -0.22300
F737        F  0.41609503  0.17327976  0.07554933    -0.23800
F738        F  0.38386151  0.16246602  0.04158617    -0.17800
F739        F  0.42179929  0.12043318  0.17060059    -0.20300
F740        F  0.37190095  0.12342078  0.16037608    -0.21400
F741        F  0.38915745  0.13853361  0.20066174    -0.18600
F742        F  0.45107106  0.24081928  0.12529201    -0.18700
F743        F  0.40115695  0.25033533  0.12640624    -0.22500
F744        F  0.42109017  0.22988294  0.08977932    -0.24100
C745        C  0.12454400  0.30107236  0.39989967    -0.11000
C746        C  0.13689215  0.31865251  0.38128151     0.11600
C747        C  0.16769728  0.32639234  0.38398018    -0.02800
C748        C  0.18573563  0.31520502  0.40483834    -0.05500
C749        C  0.17385565  0.29643247  0.42226034    -0.16300
C750        C  0.14277858  0.28936711  0.42018663     0.02600
C751        C  0.11756467  0.32678623  0.35774100     0.12600
C752        C  0.18147133  0.34590045  0.36456389     0.63200
H753        H  0.20952565  0.32047136  0.40721532     0.12600
C754        C  0.12910920  0.26950622  0.43921982     0.55300
H755        H  0.10074465  0.29581920  0.39755653     0.08400
C756        C  0.11290329  0.31084364  0.33473654    -0.05400
C757        C  0.09267154  0.31871229  0.31387002    -0.06100
C758        C  0.07687902  0.34159590  0.31566763    -0.15700
C759        C  0.08226936  0.35795141  0.33807702    -0.01300
C760        C  0.10266639  0.35016913  0.35902948    -0.08800
C761        C  0.12821944  0.28519556  0.33274337     0.65400
H762        H  0.08793472  0.30657026  0.29644601     0.10900
C763        C  0.06621950  0.38321588  0.33979228     0.63800
H764        H  0.10653699  0.36193312  0.37692499     0.08200
F765        F  0.14370071  0.24671204  0.43517847    -0.19200
F766        F  0.09816889  0.26612786  0.43427522    -0.15500
F767        F  0.13269761  0.27665339  0.46654289    -0.18900
F768        F  0.16653436  0.36863987  0.36784265    -0.22300
F769        F  0.17848098  0.33825453  0.33735491    -0.23800
F770        F  0.21228811  0.34958519  0.36982162    -0.17800
F771        F  0.03509321  0.37966487  0.34304703    -0.20300
F772        F  0.07135147  0.39684568  0.31571459    -0.21400
F773        F  0.07672727  0.39722919  0.36190739    -0.18600
F774        F  0.12392361  0.27452092  0.30693922    -0.18700
F775        F  0.11597829  0.26912537  0.35243730    -0.22500
F776        F  0.15938613  0.28728468  0.33712362    -0.24100
C777        C  0.17680282  0.31378085  0.11427507    -0.11000
C778        C  0.14566322  0.30802054  0.11594906     0.11600
C779        C  0.13195582  0.29190314  0.09628017    -0.02800
C780        C  0.15047389  0.28168430  0.07539075    -0.05500
C781        C  0.18165322  0.28747728  0.07380054    -0.16300
C782        C  0.19526121  0.30348950  0.09351842     0.02600
C783        C  0.12778083  0.31961795  0.13829975     0.12600
C784        C  0.09795457  0.28593254  0.09715466     0.63200
H785        H  0.14070250  0.26950705  0.05981675     0.12600
C786        C  0.22927470  0.30899754  0.09300004     0.55300
H787        H  0.18650214  0.32634212  0.12950707     0.08400
C788        C  0.12683858  0.30909311  0.16526221    -0.05400
C789        C  0.10645050  0.31951247  0.18447391    -0.06100
C790        C  0.08766898  0.34007025  0.17741023    -0.15700
C791        C  0.09095120  0.35201807  0.15123114    -0.01300
C792        C  0.11106426  0.34140771  0.13199590    -0.08800
C793        C  0.14652431  0.28657122  0.17331913     0.65400
H794        H  0.10366051  0.31077836  0.20467308     0.10900
C795        C  0.07294761  0.37507339  0.14205793     0.63800
H796        H  0.11296552  0.34968933  0.11144988     0.08200
F797        F  0.24523000  0.28670557  0.09560349    -0.19200
F798        F  0.23801916  0.32452580  0.11449889    -0.15500
F799        F  0.23716522  0.32054001  0.06826325    -0.18900
F800        F  0.08112534  0.30770073  0.09303210    -0.22300
F801        F  0.09031866  0.27559838  0.12259314    -0.23800
F802        F  0.08974014  0.26898343  0.07681924    -0.17800
F803        F  0.09305725  0.39336619  0.13288764    -0.20300
F804        F  0.05548622  0.38536000  0.16302389    -0.21400
F805        F  0.05378367  0.36863790  0.12040631    -0.18600
F806        F  0.14156834  0.27912888  0.20050913    -0.18700
F807        F  0.17712904  0.29262961  0.17061806    -0.22500
F808        F  0.14001616  0.26643134  0.15635764    -0.24100
C809        C  0.87008740  0.14797287  0.48502663    -0.11000
C810        C  0.86046844  0.12767506  0.50146688     0.11600
C811        C  0.83247753  0.12904118  0.51608187    -0.02800
C812        C  0.81470427  0.15101862  0.51354462    -0.05500
C813        C  0.82392217  0.17116672  0.49654672    -0.16300
C814        C  0.85200202  0.16970989  0.48190058     0.02600
C815        C  0.88028069  0.10512877  0.50296879     0.12600
C816        C  0.82154368  0.10732647  0.53415325     0.63200
H817        H  0.79325247  0.15258225  0.52466198     0.12600
C818        C  0.87114657  0.19617120  0.97104926     0.55300
H819        H  0.89184217  0.14645721  0.47439769     0.08400
C820        C  0.88028286  0.08683362  0.48181685    -0.05400
C821        C  0.89943462  0.06577813  0.48476898    -0.06100
C822        C  0.91910497  0.06307909  0.50755504    -0.15700
C823        C  0.91905371  0.08138630  0.52881331    -0.01300
C824        C  0.89962369  0.10228163  0.52596525    -0.08800
C825        C  0.86134508  0.09013791  0.45563559     0.65400
H826        H  0.90063451  0.05191562  0.46844586     0.10900
C827        C  0.92595337  0.07021647  0.05115161     0.63800
H828        H  0.88762850  0.10969334  0.03870573     0.08200
F829        F  0.84395973  0.19408048  0.44103748    -0.19200
F830        F  0.90190608  0.19252185  0.96535955    -0.15500
F831        F  0.86870702  0.21486065  0.99073427    -0.18900
F832        F  0.84164117  0.10360638  0.55595875    -0.22300
F833        F  0.82002022  0.08555337  0.51870395    -0.23800
F834        F  0.79278527  0.11186136  0.54509231    -0.17800
F835        F  0.95753170  0.07037517  0.04923489    -0.20300
F836        F  0.91643234  0.04645859  0.05909662    -0.21400
F837        F  0.91751788  0.08695048  0.07166654    -0.18600
F838        F  0.86295916  0.06917350  0.43882665    -0.18700
F839        F  0.87210273  0.11052670  0.44065711    -0.22500
F840        F  0.83096419  0.09414487  0.46229136    -0.24100
C841        C  0.09823109  0.10736448  0.51371421    -0.11000
C842        C  0.11733295  0.10908637  0.49047982     0.11600
C843        C  0.11691793  0.08992657  0.47025632    -0.02800
C844        C  0.09561331  0.07027243  0.47321626    -0.05500
C845        C  0.07566076  0.06904278  0.49602469    -0.16300
C846        C  0.07735362  0.08754944  0.51698396     0.02600
C847        C  0.13826993  0.13090039  0.48880039     0.12600
C848        C  0.13911418  0.09010485  0.44600520     0.63200
H849        H  0.09428864  0.05564605  0.45774834     0.12600
C850        C  0.05665680  0.08340233  0.04407507     0.55300
H851        H  0.09962195  0.12198358  0.52919412     0.08400
C852        C  0.12875061  0.15434623  0.47762429    -0.05400
C853        C  0.14942872  0.17459190  0.47804186    -0.06100
C854        C  0.17820757  0.17239722  0.49084479    -0.15700
C855        C  0.18728574  0.14911440  0.50280430    -0.01300
C856        C  0.16717374  0.12857694  0.50119668    -0.08800
C857        C  0.09644696  0.15821742  0.46658379     0.65400
H858        H  0.14281078  0.19266066  0.46937180     0.10900
C859        C  0.22251238  0.14311961  0.01045211     0.63800
H860        H  0.17564358  0.10910926  0.00777550     0.08200
F861        F  0.02747444  0.09186272  0.53618305    -0.19200
F862        F  0.06522308  0.09952204  0.06509531    -0.15500
F863        F  0.05905600  0.06261130  0.55462231    -0.18900
F864        F  0.16887297  0.08983747  0.45577266    -0.22300
F865        F  0.13476738  0.11143498  0.42995000    -0.23800
F866        F  0.13528743  0.06935155  0.42918592    -0.17800
F867        F  0.22883022  0.15590132  0.03464195    -0.20300
F868        F  0.24203744  0.15136703  0.98975387    -0.21400
F869        F  0.22826117  0.11781493  0.01512061    -0.18600
F870        F  0.09221358  0.18224181  0.45598250    -0.18700
F871        F  0.07558798  0.15463107  0.48777885    -0.22500
F872        F  0.09032200  0.14131702  0.44570023    -0.24100
C873        C  0.17351746  0.87624863  0.49254109    -0.11000
C874        C  0.14240766  0.87552439  0.48549797     0.11600
C875        C  0.12933519  0.85307832  0.47526660    -0.02800
C876        C  0.14819980  0.83180956  0.47240488    -0.05500
C877        C  0.17907947  0.83231882  0.48022553    -0.16300
C878        C  0.19210700  0.85471484  0.49056155     0.02600
C879        C  0.12377835  0.89851733  0.48903360     0.12600
C880        C  0.09332450  0.84940593  0.97783987     0.63200
H881        H  0.13604015  0.81187419  0.97343583     0.12600
C882        C  0.22550956  0.85580384  0.49916260     0.55300
H883        H  0.18295037  0.89375360  0.50001910     0.08400
C884        C  0.11108778  0.90505896  0.51498710    -0.05400
C885        C  0.09026448  0.92518820  0.51599939    -0.06100
C886        C  0.08247629  0.93890555  0.49208369    -0.15700
C887        C  0.09669146  0.93337235  0.46644280    -0.01300
C888        C  0.11720520  0.91308334  0.46543251    -0.08800
C889        C  0.12116713  0.89450354  0.04400038     0.65400
H890        H  0.07931926  0.93010539  0.53537524     0.10900
C891        C  0.08969462  0.94706754  0.43938716     0.63800
H892        H  0.12746550  0.90796581  0.44578447     0.08200
F893        F  0.23408448  0.87980445  0.50687359    -0.19200
F894        F  0.24390027  0.84847152  0.47730795    -0.15500
F895        F  0.23050360  0.83987384  0.52150788    -0.18900
F896        F  0.08845237  0.86832784  0.44701278    -0.22300
F897        F  0.07819652  0.85663144  0.00166094    -0.23800
F898        F  0.08431559  0.82515070  0.97163068    -0.17800
F899        F  0.11679104  0.95308909  0.42611534    -0.20300
F900        F  0.07343741  0.96914398  0.44290453    -0.21400
F901        F  0.07287857  0.93139400  0.42248043    -0.18600
F902        F  0.10574937  0.90514433  0.06609611    -0.18700
F903        F  0.15011111  0.89331847  0.54680092    -0.22500
F904        F  0.11510783  0.86900923  0.04406762    -0.24100
C905        C  0.88540040  0.91007260  0.46360055    -0.11000
C906        C  0.88407163  0.89154961  0.48437405     0.11600
C907        C  0.90306278  0.89353280  0.50804913    -0.02800
C908        C  0.92221945  0.91462517  0.51049434    -0.05500
C909        C  0.92356799  0.93324374  0.48975209    -0.16300
C910        C  0.90508987  0.93086743  0.46564544     0.02600
C911        C  0.86286118  0.87003449  0.48068502     0.12600
C912        C  0.90343662  0.87321255  0.53035644     0.63200
H913        H  0.93695371  0.91652926  0.52842537     0.12600
C914        C  0.90552639  0.94898892  0.44115286     0.55300
H915        H  0.87112062  0.90806979  0.44534711     0.08400
C916        C  0.83161042  0.87157097  0.48828659    -0.05400
C917        C  0.81329688  0.84998056  0.48591097    -0.06100
C918        C  0.82512448  0.82736652  0.47561132    -0.15700
C919        C  0.85628705  0.82585647  0.46771946    -0.01300
C920        C  0.87465580  0.84744598  0.47017320    -0.08800
C921        C  0.81668268  0.89560269  0.99880956     0.65400
H922        H  0.78871891  0.84991339  0.99316256     0.10900
C923        C  0.87025695  0.80130482  0.45787124     0.63800
H924        H  0.89858692  0.84679552  0.46435271     0.08200
F925        F  0.87648513  0.95886777  0.43730925    -0.19200
F926        F  0.91385212  0.93601669  0.41754999    -0.15500
F927        F  0.92563860  0.96874031  0.44429147    -0.18900
F928        F  0.91365793  0.85082675  0.51921603    -0.22300
F929        F  0.87462601  0.87323482  0.04302772    -0.23800
F930        F  0.92314772  0.88300489  0.05299561    -0.17800
F931        F  0.85690576  0.79425205  0.43313574    -0.20300
F932        F  0.86545848  0.78266039  0.47753927    -0.21400
F933        F  0.90149750  0.80336667  0.45363314    -0.18600
F934        F  0.78616430  0.89277901  0.00586810    -0.18700
F935        F  0.81837964  0.91290065  0.97734305    -0.22500
F936        F  0.83195531  0.90498076  0.02158777    -0.24100
C937        C  0.60613845  0.40475907  0.51057728    -0.11000
C938        C  0.61684777  0.39334057  0.48630839     0.11600
C939        C  0.60734910  0.40271569  0.46009124    -0.02800
C940        C  0.58752997  0.42361433  0.45908598    -0.05500
C941        C  0.57670543  0.43494791  0.48335577    -0.16300
C942        C  0.59708160  0.43058011  0.00446385     0.02600
C943        C  0.63736637  0.37109126  0.48889135     0.12600
C944        C  0.61743873  0.39023153  0.43336459     0.63200
H945        H  0.57951118  0.43087191  0.43932785     0.12600
C946        C  0.59817403  0.44830610  0.02897305     0.55300
H947        H  0.63320317  0.40642096  0.02033746     0.08400
C948        C  0.66913311  0.37345537  0.49355036    -0.05400
C949        C  0.68736160  0.35161801  0.49363885    -0.06100
C950        C  0.67489892  0.32738872  0.49006006    -0.15700
C951        C  0.64530095  0.32634084  0.00067610    -0.01300
C952        C  0.62617100  0.34763000  0.99758735    -0.08800
C953        C  0.68363011  0.39890340  0.49892881     0.65400
H954        H  0.71174006  0.35346189  0.49697260     0.10900
C955        C  0.63399757  0.30401701  0.01765590     0.63800
H956        H  0.60324552  0.34754218  0.00611982     0.08200
F957        F  0.58523548  0.46237106  0.53702252    -0.19200
F958        F  0.56992054  0.44882529  0.04185978    -0.15500
F959        F  0.61978577  0.44082855  0.04839988    -0.18900
F960        F  0.57911540  0.35230121  0.95216605    -0.22300
F961        F  0.64901883  0.38865625  0.43239369    -0.23800
F962        F  0.60766790  0.40353584  0.41020426    -0.17800
F963        F  0.60588683  0.30881016  0.02980924    -0.20300
F964        F  0.65467242  0.29867406  0.03865455    -0.21400
F965        F  0.63064841  0.28317917  0.00096601    -0.18600
F966        F  0.71517833  0.39724234  0.50116938    -0.18700
F967        F  0.67244961  0.40851591  0.52348880    -0.22500
F968        F  0.67685260  0.41543569  0.47752451    -0.24100
C969        C  0.32377717  0.37978028  0.49472395    -0.11000
C970        C  0.35521580  0.37588601  0.49173762     0.11600
C971        C  0.36748400  0.35138539  0.49366197    -0.02800
C972        C  0.34721034  0.33100169  0.49509215    -0.05500
C973        C  0.31519952  0.33447489  0.49610086    -0.16300
C974        C  0.30336312  0.35954826  0.49777693     0.02600
C975        C  0.37493303  0.39794581  0.48698380     0.12600
C976        C  0.40185787  0.34700398  0.49454301     0.63200
H977        H  0.35647915  0.31210601  0.49526438     0.12600
C978        C  0.26977257  0.36549897  0.50309156     0.55300
H979        H  0.31539117  0.39897560  0.49434098     0.08400
C980        C  0.38537633  0.40509867  0.46021332    -0.05400
C981        C  0.40667633  0.42466526  0.45809445    -0.06100
C982        C  0.41692756  0.43745384  0.48158027    -0.15700
C983        C  0.40090164  0.43437573  0.01514183    -0.01300
C984        C  0.37872790  0.41521994  0.01612562    -0.08800
C985        C  0.37508545  0.39303184  0.43330609     0.65400
H986        H  0.41567743  0.42990948  0.43791981     0.10900
C987        C  0.40709347  0.45024083  0.04055668     0.63800
H988        H  0.36558825  0.41202550  0.03484264     0.08200
F989        F  0.25218331  0.35814066  0.48074011    -0.19200
F990        F  0.26792896  0.38928451  0.95722116    -0.15500
F991        F  0.26010689  0.35325240  0.52692620    -0.18900
F992        F  0.38929332  0.36776748  0.04746960    -0.22300
F993        F  0.41513057  0.35532303  0.47017431    -0.23800
F994        F  0.40909223  0.32181231  0.49799693    -0.17800
F995        F  0.40084446  0.47522007  0.03470273    -0.20300
F996        F  0.43745484  0.44785493  0.04828870    -0.21400
F997        F  0.38919722  0.44295173  0.06287141    -0.18600
F998        F  0.40031437  0.38344349  0.41960120    -0.18700
F999        F  0.36150400  0.41118241  0.41664494    -0.22500
F1000       F  0.35429809  0.37378266  0.43702539    -0.24100
C1001       C  0.38617060  0.59650676  0.43937827    -0.11000
C1002       C  0.37573109  0.60723622  0.46410985     0.11600
C1003       C  0.37897455  0.59450648  0.98641981    -0.02800
C1004       C  0.39987516  0.57433935  0.98846016    -0.05500
C1005       C  0.41833508  0.56750400  0.46534431    -0.16300
C1006       C  0.40785586  0.57693907  0.43953994     0.02600
C1007       C  0.35428678  0.62881502  0.46232161     0.12600
C1008       C  0.35710115  0.59994012  0.01012951     0.63200
H1009       H  0.40121195  0.56318244  0.00729797     0.12600
C1010       C  0.41994948  0.56654016  0.41243380     0.55300
H1011       H  0.37754516  0.60395193  0.41991560     0.08400
C1012       C  0.36899302  0.65592662  0.96713378    -0.05400
C1013       C  0.34779879  0.67586118  0.96739718    -0.06100
C1014       C  0.31192912  0.66919940  0.46285021    -0.15700
C1015       C  0.30148373  0.64397186  0.46691128    -0.01300
C1016       C  0.32311022  0.62428826  0.46642588    -0.08800
C1017       C  0.40222824  0.66056332  0.97481823     0.65400
H1018       H  0.35477188  0.69399400  0.97523611     0.10900
C1019       C  0.26807891  0.63735704  0.47216154     0.63800
H1020       H  0.31600647  0.60500283  0.46973336     0.08200
F1021       F  0.45142652  0.56909769  0.41146596    -0.19200
F1022       F  0.40768718  0.57903653  0.38971110    -0.15500
F1023       F  0.41256329  0.54136659  0.41034784    -0.18900
F1024       F  0.34386214  0.60356979  0.52022618    -0.22300
F1025       F  0.36177831  0.62393695  0.02006399    -0.23800
F1026       F  0.36098999  0.58318021  0.03195167    -0.17800
F1027       F  0.26390348  0.61176308  0.47604566    -0.20300
F1028       F  0.25043178  0.64458452  0.44962602    -0.21400
F1029       F  0.25777302  0.64925045  0.49582407    -0.18600
F1030       F  0.40730706  0.68539445  0.98190113    -0.18700
F1031       F  0.42070343  0.65496556  0.95241221    -0.22500
F1032       F  0.41073826  0.64558365  0.99705296    -0.24100
C1033       C  0.62500374  0.65386417  0.46953381    -0.11000
C1034       C  0.63722018  0.62993032  0.46493847     0.11600
C1035       C  0.66470431  0.62938638  0.94721284    -0.02800
C1036       C  0.68382536  0.65060037  0.94843065    -0.05500
C1037       C  0.67575491  0.67262863  0.46644173    -0.16300
C1038       C  0.64370730  0.67525857  0.47144649     0.02600
C1039       C  0.61629567  0.60808540  0.46647443     0.12600
C1040       C  0.67297648  0.60751513  0.92851321     0.63200
H1041       H  0.70491714  0.65095632  0.93664800     0.12600
C1042       C  0.62901102  0.70000212  0.47999407     0.55300
H1043       H  0.60049623  0.65545915  0.47244417     0.08400
C1044       C  0.61738145  0.59031951  0.98797531    -0.05400
C1045       C  0.59696553  0.56990217  0.98818057    -0.06100
C1046       C  0.57715984  0.56622476  0.46758434    -0.15700
C1047       C  0.58704601  0.57606459  0.44179809    -0.01300
C1048       C  0.60675582  0.59691011  0.44168461    -0.08800
C1049       C  0.63847221  0.59450739  0.01254404     0.65400
H1050       H  0.59595261  0.55736599  0.00595406     0.10900
C1051       C  0.57637882  0.56470145  0.41468063     0.63800
H1052       H  0.61460352  0.60489668  0.42224268     0.08200
F1053       F  0.64418930  0.70964652  0.50274910    -0.19200
F1054       F  0.59861646  0.69703717  0.48741846    -0.15500
F1055       F  0.63003876  0.71702424  0.45820378    -0.18900
F1056       F  0.65158510  0.60564849  0.90749312    -0.22300
F1057       F  0.67344722  0.58529557  0.94358256    -0.23800
F1058       F  0.70143813  0.61062213  0.91639565    -0.17800
F1059       F  0.58498226  0.53967994  0.41362740    -0.20300
F1060       F  0.54485461  0.56639826  0.41269452    -0.21400
F1061       F  0.58889751  0.57691766  0.39194781    -0.18600
F1062       F  0.63635723  0.57523971  0.03190131    -0.18700
F1063       F  0.60024013  0.63443559  0.52069836    -0.22500
F1064       F  0.66850941  0.59577938  0.00363900    -0.24100
N1065       N  0.49770581  0.53925533  0.97102162    -0.35700
N1066       N  0.54500055  0.50061604  0.97666692    -0.56200
N1067       N  0.49723404  0.46300825  0.47815681    -0.35700
N1068       N  0.44996238  0.50195309  0.47212369    -0.56200
C1069       C  0.52300838  0.55309068  0.97590379     0.27900
C1070       C  0.47320132  0.55416320  0.97609512     0.27900
C1071       C  0.52198857  0.44775926  0.48080045     0.27900
C1072       C  0.47196553  0.44841608  0.47978058     0.27900
C1073       C  0.56226291  0.52013401  0.96781740     0.36500
C1074       C  0.56340717  0.48031291  0.47675840     0.36500
C1075       C  0.43265197  0.52240559  0.97090787     0.36500
C1076       C  0.43149741  0.48169024  0.47279107     0.36500
C1077       C  0.51447884  0.57693529  0.98463466    -0.21000
C1078       C  0.48297826  0.57765009  0.98458104    -0.21000
C1079       C  0.51221393  0.42308458  0.48398684    -0.21000
C1080       C  0.48078210  0.42351379  0.48348126    -0.21000
C1081       C  0.59069988  0.51153490  0.95930576    -0.22000
C1082       C  0.59056473  0.48577790  0.96286110    -0.22000
C1083       C  0.40149754  0.51471060  0.46559471    -0.22000
C1084       C  0.40131170  0.48907158  0.46877428    -0.22000
C1085       C  0.55326546  0.54567357  0.96943917    -0.17400
C1086       C  0.44246646  0.54767611  0.97070545    -0.17400
C1087       C  0.44107960  0.45667768  0.47796842    -0.17400
C1088       C  0.55321687  0.45522956  0.48055200    -0.17400
H1089       H  0.52941408  0.59250712  0.98947450     0.15500
H1090       H  0.46888030  0.59378295  0.98952849     0.15500
H1091       H  0.52623824  0.40641699  0.48661398     0.15500
H1092       H  0.46611339  0.40723848  0.48556323     0.15500
H1093       H  0.60962700  0.52268116  0.95165392     0.13800
H1094       H  0.60939911  0.47312500  0.95854203     0.13800
H1095       H  0.38156869  0.52654891  0.46247998     0.13800
H1096       H  0.38118212  0.47725882  0.46849326     0.13800
H1097       H  0.49722666  0.52202526  0.96092217     0.27100
H1098       H  0.49743900  0.48212172  0.47582278     0.27100
N1099       N  0.99795925  0.03855477  0.99771935    -0.35700
N1100       N  0.95287320  0.99856984  0.99446481    -0.56200
N1101       N  0.00199769  0.96239878  0.99171542    -0.35700
N1102       N  0.04705988  0.00269148  0.99395225    -0.56200
C1103       C  0.97198994  0.05157066  0.99251040     0.27900
C1104       C  0.02161164  0.05371709  0.99078884     0.27900
C1105       C  0.97806575  0.94783958  0.98400598     0.27900
C1106       C  0.02798310  0.94971060  0.98557490     0.27900
C1107       C  0.93413378  0.01774667  0.00129632     0.36500
C1108       C  0.93608392  0.97736725  0.99635293     0.36500
C1109       C  0.06373040  0.02349641  0.99913883     0.36500
C1110       C  0.06595329  0.98284320  0.99771777     0.36500
C1111       C  0.97921350  0.07526933  0.98219114    -0.21000
C1112       C  0.01057031  0.07652175  0.98086009    -0.21000
C1113       C  0.98903627  0.92556982  0.97293523    -0.21000
C1114       C  0.02050070  0.92667737  0.97406799    -0.21000
C1115       C  0.90515338  0.00876777  0.00742965    -0.22000
C1116       C  0.90638055  0.98309311  0.00426318    -0.22000
C1117       C  0.09349796  0.01690645  0.00599079    -0.22000
C1118       C  0.09492817  0.99108112  0.00507405    -0.22000
C1119       C  0.94209393  0.04331437  0.99886564    -0.17400
C1120       C  0.05277327  0.04831244  0.99568790    -0.17400
C1121       C  0.05816174  0.95769688  0.99173518    -0.17400
C1122       C  0.94666454  0.95331001  0.98858290    -0.17400
H1123       H  0.96357536  0.09030030  0.97661122     0.15500
H1124       H  0.02376975  0.09267569  0.97423286     0.15500
H1125       H  0.97574169  0.90992985  0.96529612     0.15500
H1126       H  0.03605091  0.91203190  0.96741772     0.15500
H1127       H  0.88505747  0.01965033  0.01279269     0.13800
H1128       H  0.88744074  0.97020915  0.00682049     0.13800
H1129       H  0.11229624  0.02939760  0.01066304     0.13800
H1130       H  0.11515314  0.97972111  0.00873219     0.13800
H1131       H  0.99934997  0.02174826  0.00883148     0.27100
H1132       H  0.00084107  0.97861668  0.00353536     0.27100
O1133       O  0.31182122  0.23559582  0.52347382    -0.77600
C1134       C  0.29417761  0.22752917  0.93539351     0.83500
O1135       O  0.26223811  0.31606474  0.99489605    -0.78700
O1136       O  0.20228143  0.26024257  0.93639860    -0.80200
O1137       O  0.20799110  0.20273340  0.51459254    -0.80000
O1138       O  0.27275347  0.21970494  0.54742763    -0.78600
Zn1139     Zn  0.29106063  0.25716907  0.98920270     1.55700
O1140       O  0.20408682  0.20551021  0.97011887    -0.80000
Cd1141     Cd  0.23504519  0.23286699  0.52598194     1.59700
Cd1142     Cd  0.22909217  0.28845054  0.99419241     1.59600
O1143       O  0.21039755  0.25520187  0.55308199    -0.80000
O1144       O  0.24705611  0.25396558  0.99189117    -1.90500
Cd1145     Cd  0.23021530  0.23636410  0.95878405     1.59900
O1146       O  0.20826487  0.29255635  0.53165535    -0.79900
O1147       O  0.26538266  0.22420237  0.93345674    -0.78600
C1148       C  0.29114622  0.31463301  0.99235999     0.83900
C1149       C  0.30131199  0.22326056  0.54403939     0.83600
O1150       O  0.30597155  0.24025011  0.95488396    -0.77500
C1151       C  0.19971014  0.19417995  0.99313698     0.84400
O1152       O  0.30451267  0.29348735  0.98929737    -0.77600
C1153       C  0.20211283  0.27818644  0.55203509     0.84500
C1154       C  0.19286041  0.28263011  0.94021848     0.84900
O1155       O  0.20085933  0.29572800  0.96095537    -0.80100
O1156       O  0.69237887  0.22748439  0.96039443    -0.77600
C1157       C  0.70656214  0.22408370  0.55121520     0.83500
O1158       O  0.72592395  0.31038048  0.99200225    -0.78700
O1159       O  0.79708622  0.26020383  0.54636742    -0.80200
O1160       O  0.79911753  0.20546234  0.96677591    -0.80000
O1161       O  0.73339973  0.21811535  0.93525574    -0.78600
Zn1162     Zn  0.70782203  0.24860563  0.99191800     1.55700
O1163       O  0.79516021  0.20337572  0.51807609    -0.80000
Cd1164     Cd  0.76873592  0.23427672  0.95709150     1.59700
Cd1165     Cd  0.76395704  0.28695536  0.99113235     1.59600
O1166       O  0.79117767  0.26016015  0.93230165    -0.80000
O1167       O  0.75203315  0.25077585  0.99087828    -1.90500
Cd1168     Cd  0.76926392  0.23493643  0.52668143     1.59900
O1169       O  0.78901800  0.29587748  0.95628669    -0.79900
O1170       O  0.73551138  0.22397178  0.55370382    -0.78600
C1171       C  0.69736746  0.30560710  0.99057344     0.83900
C1172       C  0.70468727  0.21696815  0.93948451     0.83600
O1173       O  0.69354517  0.23248817  0.52935247    -0.77500
C1174       C  0.80561872  0.19463646  0.98967514     0.84400
O1175       O  0.68778475  0.28303534  0.98963609    -0.77600
C1176       C  0.79772472  0.28332821  0.93534811     0.84500
C1177       C  0.80263716  0.28347802  0.54277935     0.84900
O1178       O  0.79095079  0.29641839  0.52312849    -0.80100
O1179       O  0.68831483  0.76808655  0.50236490    -0.77600
C1180       C  0.70590805  0.77988886  0.91426963     0.83500
O1181       O  0.72667853  0.68807873  0.96596213    -0.78700
O1182       O  0.79587581  0.74345619  0.91549125    -0.80200
O1183       O  0.79316233  0.79685073  0.49654450    -0.80000
O1184       O  0.72823110  0.77936724  0.52767585    -0.78600
Zn1185     Zn  0.70678366  0.74980898  0.96839230     1.55700
O1186       O  0.79667243  0.79662468  0.95185369    -0.80000
Cd1187     Cd  0.76488257  0.76663231  0.50513034     1.59700
Cd1188     Cd  0.76342643  0.71225065  0.96973631     1.59600
O1189       O  0.78916414  0.74173418  0.52976131    -0.80000
O1190       O  0.75084922  0.74840064  0.97044243    -1.90500
Cd1191     Cd  0.76901736  0.76734330  0.93857765     1.59900
O1192       O  0.78655560  0.70543558  0.50725610    -0.79900
O1193       O  0.73493438  0.78154307  0.91291690    -0.78600
C1194       C  0.69812531  0.69289916  0.96533657     0.83900
C1195       C  0.69947277  0.77815812  0.52406304     0.83600
O1196       O  0.69301558  0.76868202  0.93453467    -0.77500
C1197       C  0.80403196  0.80463999  0.97578920     0.84400
O1198       O  0.68829456  0.71539953  0.96591979    -0.77600
C1199       C  0.79557379  0.71842176  0.52767222     0.84500
C1200       C  0.80266819  0.72023361  0.91788255     0.84900
O1201       O  0.79236150  0.70631702  0.93725047    -0.80100
O1202       O  0.30255130  0.77361920  0.93867601    -0.77600
C1203       C  0.29500538  0.77052465  0.52853462     0.83500
O1204       O  0.26743436  0.68999939  0.96453787    -0.78700
O1205       O  0.20091545  0.74036188  0.52737092    -0.80200
O1206       O  0.20050923  0.79938633  0.95504014    -0.80000
O1207       O  0.26107700  0.78563848  0.91553288    -0.78600
Zn1208     Zn  0.28847744  0.75091134  0.96955728     1.55700
O1209       O  0.20612796  0.79782149  0.49935929    -0.80000
Cd1210     Cd  0.22648985  0.76986194  0.93977760     1.59700
Cd1211     Cd  0.23060653  0.71401633  0.96877708     1.59600
O1212       O  0.19877911  0.74729188  0.91536284    -0.80000
O1213       O  0.24430313  0.74965752  0.97110743    -1.90500
Cd1214     Cd  0.22968545  0.76473138  0.50642916     1.59900
O1215       O  0.20301633  0.70936434  0.93490589    -0.79900
O1216       O  0.26618210  0.77216643  0.53223118    -0.78600
C1217       C  0.29590338  0.69422621  0.96162071     0.83900
C1218       C  0.29006696  0.78553401  0.91859990     0.83600
O1219       O  0.30574075  0.76270324  0.50564345    -0.77500
C1220       C  0.19572806  0.80750093  0.97947295     0.84400
O1221       O  0.30650853  0.71650822  0.96267045    -0.77600
C1222       C  0.19229241  0.72392842  0.91620852     0.84500
C1223       C  0.19246216  0.71775479  0.52334375     0.84900
O1224       O  0.20143597  0.70545865  0.50234154    -0.80100
N1225       N  0.99684190  0.35028210  0.78413019    -0.35700
N1226       N  0.95414947  0.34379977  0.73884774    -0.56200
N1227       N  0.00377659  0.34402381  0.69903659    -0.35700
N1228       N  0.04644208  0.35055015  0.74379135    -0.56200
C1229       C  0.97163505  0.34263686  0.79810584     0.27900
C1230       C  0.02121606  0.34566978  0.80073375     0.27900
C1231       C  0.98087793  0.33435400  0.68363150     0.27900
C1232       C  0.03031698  0.33770172  0.68645366     0.27900
C1233       C  0.93405713  0.34707141  0.75973953     0.36500
C1234       C  0.93769070  0.34418921  0.71518773     0.36500
C1235       C  0.06248682  0.35568093  0.76690530     0.36500
C1236       C  0.06613462  0.35289736  0.72241715     0.36500
C1237       C  0.97995665  0.33423284  0.82434328    -0.21000
C1238       C  0.01125093  0.33595363  0.82592564    -0.21000
C1239       C  0.99291729  0.32232801  0.66064193    -0.21000
C1240       C  0.02416079  0.32427971  0.66252166    -0.21000
C1241       C  0.90467498  0.34997873  0.74930769    -0.22000
C1242       C  0.90700562  0.34829954  0.72097511    -0.22000
C1243       C  0.09237568  0.36195287  0.76016224    -0.22000
C1244       C  0.09468291  0.36020588  0.73186850    -0.22000
C1245       C  0.94130170  0.34301526  0.78786847    -0.17400
C1246       C  0.05223840  0.35002890  0.79388000    -0.17400
C1247       C  0.05990509  0.34451107  0.69541979    -0.17400
C1248       C  0.94934820  0.33688641  0.68923488    -0.17400
H1249       H  0.96510906  0.32706657  0.84050409     0.15500
H1250       H  0.02507153  0.33040870  0.84358234     0.15500
H1251       H  0.98049556  0.31297295  0.64427508     0.15500
H1252       H  0.04046156  0.31679474  0.64780982     0.15500
H1253       H  0.88362887  0.35177467  0.76096565     0.13800
H1254       H  0.88809884  0.34851147  0.70645562     0.13800
H1255       H  0.11096330  0.36592624  0.77431316     0.13800
H1256       H  0.11537084  0.36261138  0.71981087     0.13800
H1257       H  0.99722803  0.35952058  0.76506115     0.37500
H1258       H  0.00125791  0.35626861  0.71560808     0.27100
N1259       N  0.99944755  0.64911101  0.76450240    -0.35700
N1260       N  0.95033537  0.65538973  0.72503120    -0.56200
N1261       N  0.99638803  0.65631013  0.68260700    -0.35700
N1262       N  0.04617809  0.64878352  0.72236538    -0.56200
C1263       C  0.97487275  0.64518177  0.78079902     0.27900
C1264       C  0.02441224  0.64226612  0.77921984     0.27900
C1265       C  0.97066456  0.65430575  0.66725967     0.27900
C1266       C  0.02022403  0.65053938  0.66602659     0.27900
C1267       C  0.93484092  0.66061974  0.74841876     0.36500
C1268       C  0.93305812  0.66411842  0.70388931     0.36500
C1269       C  0.06278890  0.65532109  0.74476731     0.36500
C1270       C  0.06110788  0.65818427  0.70017187     0.36500
C1271       C  0.98416127  0.63497014  0.80598485    -0.21000
C1272       C  0.01557846  0.63312345  0.80497789    -0.21000
C1273       C  0.97813319  0.64680590  0.64063409    -0.21000
C1274       C  0.00951818  0.64433197  0.63988024    -0.21000
C1275       C  0.90701887  0.67195120  0.74211439    -0.22000
C1276       C  0.90585434  0.67411490  0.71373523    -0.22000
C1277       C  0.08870964  0.66846752  0.73678055    -0.22000
C1278       C  0.08764802  0.67027955  0.70836806    -0.22000
C1279       C  0.94553866  0.65500152  0.77530434    -0.17400
C1280       C  0.05436536  0.64961482  0.77225874    -0.17400
C1281       C  0.05110344  0.65536315  0.67264631    -0.17400
C1282       C  0.94140845  0.66236661  0.67582729    -0.17400
H1283       H  0.96998226  0.63092810  0.82385380     0.15500
H1284       H  0.03039315  0.62753397  0.82195097     0.15500
H1285       H  0.96270937  0.64446691  0.62327550     0.15500
H1286       H  0.02306329  0.63989277  0.62176927     0.15500
H1287       H  0.88954537  0.67816171  0.75644253     0.13800
H1288       H  0.88732502  0.68230936  0.70176390     0.13800
H1289       H  0.10628016  0.67618614  0.75003952     0.13800
H1290       H  0.10427418  0.67960876  0.69526055     0.13800
H1291       H  0.99969099  0.66067001  0.74706686     0.27100
H1292       H  0.99806066  0.66544739  0.70151406     0.27100
N1293       N  0.49326432  0.83936648  0.67922212    -0.35700
N1294       N  0.54319110  0.83854097  0.71893635    -0.56200
N1295       N  0.49963853  0.84136443  0.76491150    -0.35700
N1296       N  0.44949817  0.84056697  0.72525341    -0.56200
C1297       C  0.51689427  0.83247866  0.66270771     0.27900
C1298       C  0.46723115  0.83250667  0.66610590     0.27900
C1299       C  0.52557149  0.83576908  0.77905968     0.27900
C1300       C  0.47591705  0.83788378  0.78257112     0.27900
C1301       C  0.55996511  0.83965345  0.69547269     0.36500
C1302       C  0.56327149  0.83946364  0.74017194     0.36500
C1303       C  0.42945138  0.84095185  0.70388558     0.36500
C1304       C  0.43274659  0.84253803  0.74871850     0.36500
C1305       C  0.50572140  0.82200388  0.63851278    -0.21000
C1306       C  0.47448939  0.82186897  0.64070781    -0.21000
C1307       C  0.51830905  0.82989333  0.80635232    -0.21000
C1308       C  0.48707450  0.83127549  0.80857246    -0.21000
C1309       C  0.59081090  0.84166177  0.70182616    -0.22000
C1310       C  0.59291126  0.84147719  0.73017068    -0.22000
C1311       C  0.39983774  0.84351708  0.71377950    -0.22000
C1312       C  0.40190447  0.84441556  0.74214895    -0.22000
C1313       C  0.54838492  0.83518540  0.66868678    -0.17400
C1314       C  0.43694199  0.83551860  0.67604407    -0.17400
C1315       C  0.44438154  0.83991794  0.77601801    -0.17400
C1316       C  0.55571147  0.83543785  0.76825712    -0.17400
H1317       H  0.51871180  0.81476022  0.62119990     0.15500
H1318       H  0.45892042  0.81453499  0.62530661     0.15500
H1319       H  0.53385181  0.82470998  0.82294035     0.15500
H1320       H  0.47406997  0.82735678  0.82719103     0.15500
H1321       H  0.60990918  0.84204252  0.68754294     0.13800
H1322       H  0.61393631  0.84180170  0.74204846     0.13800
H1323       H  0.37883626  0.84364231  0.70185131     0.13800
H1324       H  0.38277780  0.84546706  0.75635216     0.13800
H1325       H  0.49472247  0.84973087  0.69734944     0.27100
H1326       H  0.49834077  0.84830345  0.74482680     0.27100
N1327       N  0.49880050  0.16540944  0.78616298    -0.35700
N1328       N  0.54891418  0.16173030  0.74703009    -0.56200
N1329       N  0.50385333  0.16486177  0.70303992    -0.35700
N1330       N  0.45384974  0.16683396  0.74182767    -0.56200
C1331       C  0.52211263  0.15940858  0.80343457     0.27900
C1332       C  0.47254061  0.16281770  0.80063035     0.27900
C1333       C  0.52952495  0.15966124  0.68868913     0.27900
C1334       C  0.47993147  0.16114384  0.68586115     0.27900
C1335       C  0.56469281  0.16681090  0.77037785     0.36500
C1336       C  0.56730558  0.16816420  0.72567292     0.36500
C1337       C  0.43629995  0.17465624  0.76306815     0.36500
C1338       C  0.43896668  0.17364126  0.71843906     0.36500
C1339       C  0.51053684  0.15279786  0.82922533    -0.21000
C1340       C  0.47918515  0.15493934  0.82745021    -0.21000
C1341       C  0.52191665  0.15204429  0.66212550    -0.21000
C1342       C  0.49045379  0.15290705  0.66036068    -0.21000
C1343       C  0.59364493  0.17567768  0.76384946    -0.22000
C1344       C  0.59526405  0.17661494  0.73542614    -0.22000
C1345       C  0.40983072  0.18606890  0.75318198    -0.22000
C1346       C  0.41142441  0.18525378  0.72478139    -0.22000
C1347       C  0.55343641  0.16297588  0.79748556    -0.17400
C1348       C  0.44329139  0.17040909  0.79120899    -0.17400
C1349       C  0.44964975  0.16871319  0.69148286    -0.17400
C1350       C  0.55914483  0.16617573  0.69750056    -0.17400
H1351       H  0.52341285  0.14787563  0.84767493     0.15500
H1352       H  0.46316951  0.15194412  0.84425788     0.15500
H1353       H  0.53748271  0.14770664  0.64536194     0.15500
H1354       H  0.47697396  0.14926211  0.64198993     0.15500
H1355       H  0.61156412  0.18116052  0.77806898     0.13800
H1356       H  0.61466972  0.18295843  0.72334775     0.13800
H1357       H  0.39123577  0.19393531  0.76518289     0.13800
H1358       H  0.39439003  0.19248999  0.71047282     0.13800
H1359       H  0.50089575  0.17458954  0.76721718     0.27100
H1360       H  0.50315896  0.17495603  0.72137113     0.27100
C1361       C  0.36597744  0.78414039  0.57315386    -0.11000
C1362       C  0.35241233  0.79628995  0.59566703     0.11600
C1363       C  0.32033050  0.79904564  0.59685534    -0.02800
C1364       C  0.30268537  0.79005689  0.57470403    -0.05500
C1365       C  0.31602231  0.77832204  0.55145903    -0.16300
C1366       C  0.34844745  0.77466781  0.55106167     0.02600
C1367       C  0.37254878  0.80647828  0.61753430     0.12600
C1368       C  0.30493068  0.81182272  0.62129361     0.63200
H1369       H  0.27812461  0.79265793  0.57532526     0.12600
C1370       C  0.36492997  0.76072892  0.52796969     0.55300
H1371       H  0.39067805  0.78231256  0.57305304     0.08400
C1372       C  0.38346856  0.79131838  0.63965813    -0.05400
C1373       C  0.40238561  0.80234670  0.65966034    -0.06100
C1374       C  0.41191021  0.82742274  0.65725165    -0.15700
C1375       C  0.40119661  0.84258186  0.63502092    -0.01300
C1376       C  0.38118849  0.83182951  0.61560434    -0.08800
C1377       C  0.37727695  0.76324467  0.64100615     0.65400
H1378       H  0.41172958  0.79099759  0.67640387     0.10900
C1379       C  0.41133851  0.86970820  0.63162149     0.63800
H1380       H  0.37271395  0.84291254  0.59828176     0.08200
F1381       F  0.35250294  0.73699205  0.52494788    -0.19200
F1382       F  0.39582795  0.75765357  0.53351103    -0.15500
F1383       F  0.36240519  0.77407253  0.50334274    -0.18900
F1384       F  0.31357536  0.83678494  0.62218565    -0.22300
F1385       F  0.31343357  0.80016278  0.64583810    -0.23800
F1386       F  0.27333533  0.81089015  0.61943490    -0.17800
F1387       F  0.39656779  0.88153394  0.60968525    -0.20300
F1388       F  0.44246847  0.87066127  0.62664239    -0.21400
F1389       F  0.40484854  0.88289998  0.65551704    -0.18600
F1390       F  0.38647672  0.75289858  0.66610245    -0.18700
F1391       F  0.39329768  0.75145079  0.62006233    -0.22500
F1392       F  0.34642761  0.75839424  0.63781620    -0.24100
C1393       C  0.38651599  0.84770336  0.83463651    -0.11000
C1394       C  0.37968567  0.82246423  0.84057527     0.11600
C1395       C  0.39457778  0.80302624  0.82577959    -0.02800
C1396       C  0.41545093  0.80964814  0.80486370    -0.05500
C1397       C  0.42208366  0.83486050  0.79872768    -0.16300
C1398       C  0.40809418  0.85426362  0.81416964     0.02600
C1399       C  0.35589966  0.81674019  0.86158473     0.12600
C1400       C  0.38802427  0.77543277  0.83167480     0.63200
H1401       H  0.42675356  0.79517552  0.79289301     0.12600
C1402       C  0.41641422  0.88159593  0.80927267     0.55300
H1403       H  0.37482336  0.86219781  0.84625316     0.08400
C1404       C  0.36270240  0.81474197  0.89013330    -0.05400
C1405       C  0.33996240  0.80555511  0.90811254    -0.06100
C1406       C  0.31054004  0.79896371  0.89859410    -0.15700
C1407       C  0.30292449  0.80372685  0.87029982    -0.01300
C1408       C  0.32606792  0.81228259  0.85226567    -0.08800
C1409       C  0.39386540  0.82210383  0.90145583     0.65400
H1410       H  0.34530249  0.80301817  0.92987784     0.10900
C1411       C  0.27109575  0.79929373  0.85868058     0.63800
H1412       H  0.32138584  0.81488944  0.83037458     0.08200
F1413       F  0.44728863  0.88493525  0.81436244    -0.19200
F1414       F  0.40017696  0.89751323  0.82650012    -0.15500
F1415       F  0.41012350  0.88837800  0.78214372    -0.18900
F1416       F  0.35812275  0.77002887  0.82457136    -0.22300
F1417       F  0.39232587  0.77008321  0.85949330    -0.23800
F1418       F  0.40711529  0.75973619  0.81671449    -0.17800
F1419       F  0.25014542  0.81432568  0.87232872    -0.20300
F1420       F  0.26328987  0.77429145  0.86192577    -0.21400
F1421       F  0.26929579  0.80512095  0.83069042    -0.18600
F1422       F  0.39560410  0.81878770  0.92991708    -0.18700
F1423       F  0.39932986  0.84718308  0.89563661    -0.22500
F1424       F  0.41658214  0.80769579  0.88944448    -0.24100
C1425       C  0.11706770  0.65602923  0.62118449    -0.11000
C1426       C  0.11085483  0.67857986  0.60699184     0.11600
C1427       C  0.08410374  0.69253487  0.61306682    -0.02800
C1428       C  0.06545187  0.68429451  0.63487550    -0.05500
C1429       C  0.07211080  0.66218199  0.64973461    -0.16300
C1430       C  0.09778315  0.64731957  0.64246840     0.02600
C1431       C  0.13302023  0.68738933  0.58604051     0.12600
C1432       C  0.07515740  0.71581465  0.59643509     0.63200
H1433       H  0.04532753  0.69503558  0.64057970     0.12600
C1434       C  0.10429875  0.62222145  0.65656743     0.55300
H1435       H  0.13736636  0.64547541  0.61558968     0.08400
C1436       C  0.15766164  0.70314902  0.59327127    -0.05400
C1437       C  0.17638046  0.71259505  0.57203073    -0.06100
C1438       C  0.17218486  0.70569390  0.54419227    -0.15700
C1439       C  0.14864570  0.68835019  0.53731672    -0.01300
C1440       C  0.12909394  0.67982633  0.55854091    -0.08800
C1441       C  0.16471329  0.70920622  0.62337095     0.65400
H1442       H  0.19499125  0.72515050  0.57713841     0.10900
C1443       C  0.14376750  0.67892098  0.50796607     0.63800
H1444       H  0.11045471  0.66713145  0.55392977     0.08200
F1445       F  0.11199447  0.62577742  0.68402974    -0.19200
F1446       F  0.12829574  0.60961453  0.64402515    -0.15500
F1447       F  0.07863719  0.60711342  0.65517575    -0.18900
F1448       F  0.07147571  0.70952830  0.56887741    -0.22300
F1449       F  0.09759411  0.73395607  0.59851537    -0.23800
F1450       F  0.04789390  0.72615750  0.60565259    -0.17800
F1451       F  0.16849785  0.66431252  0.50011989    -0.20300
F1452       F  0.14056289  0.69901361  0.48981446    -0.21400
F1453       F  0.11773326  0.66425372  0.50583918    -0.18600
F1454       F  0.18891357  0.72580229  0.62571746    -0.18700
F1455       F  0.17244421  0.68728973  0.63733701    -0.22500
F1456       F  0.13955408  0.71991694  0.63607103    -0.24100
C1457       C  0.11849545  0.65481674  0.82532888    -0.11000
C1458       C  0.11037905  0.67758618  0.83797619     0.11600
C1459       C  0.08376217  0.69072557  0.82938969    -0.02800
C1460       C  0.06607125  0.68052923  0.80809638    -0.05500
C1461       C  0.07432002  0.65798731  0.79517890    -0.16300
C1462       C  0.10063447  0.64460465  0.80393855     0.02600
C1463       C  0.13159253  0.68852487  0.85838003     0.12600
C1464       C  0.07437985  0.71563419  0.84221341     0.63200
H1465       H  0.04583058  0.69037339  0.80079922     0.12600
C1466       C  0.10963254  0.61983015  0.79077723     0.55300
H1467       H  0.13930650  0.64542476  0.83197837     0.08400
C1468       C  0.13215426  0.68083062  0.88645312    -0.05400
C1469       C  0.15206488  0.69324735  0.90462024    -0.06100
C1470       C  0.17121551  0.71291315  0.89552762    -0.15700
C1471       C  0.17075714  0.72028453  0.86717754    -0.01300
C1472       C  0.15116898  0.70754583  0.84903089    -0.08800
C1473       C  0.11196912  0.65961937  0.89707849     0.65400
H1474       H  0.15272776  0.68769560  0.92626386     0.10900
C1475       C  0.19114543  0.74096268  0.85576070     0.63800
H1476       H  0.15044256  0.71264078  0.82725049     0.08200
F1477       F  0.13483260  0.60910279  0.80372698    -0.19200
F1478       F  0.11683267  0.62359789  0.76317220    -0.15500
F1479       F  0.08557440  0.60306609  0.79268371    -0.18900
F1480       F  0.09594003  0.73381752  0.83616698    -0.22300
F1481       F  0.07194540  0.71301753  0.87065402    -0.23800
F1482       F  0.04641353  0.72402227  0.83218976    -0.17800
F1483       F  0.22132751  0.73574238  0.86228483    -0.20300
F1484       F  0.18269283  0.76383667  0.86692437    -0.21400
F1485       F  0.18894806  0.74311217  0.82719476    -0.18600
F1486       F  0.11541600  0.65577498  0.92534215    -0.18700
F1487       F  0.11956467  0.63747924  0.88386766    -0.22500
F1488       F  0.08153945  0.66514708  0.89194607    -0.24100
C1489       C  0.67526098  0.80501676  0.84485912    -0.11000
C1490       C  0.64441865  0.80849627  0.85148149     0.11600
C1491       C  0.63366006  0.80246311  0.87828457    -0.02800
C1492       C  0.65495609  0.79472065  0.89841685    -0.05500
C1493       C  0.68610283  0.79083871  0.89200817    -0.16300
C1494       C  0.69630730  0.79549643  0.86436748     0.02600
C1495       C  0.62338759  0.81623659  0.82903983     0.12600
C1496       C  0.59965769  0.80277739  0.88508226     0.63200
H1497       H  0.64700127  0.79067042  0.91921443     0.12600
C1498       C  0.72836650  0.78891239  0.85461348     0.55300
H1499       H  0.68240792  0.80902478  0.82378791     0.08400
C1500       C  0.61712543  0.84180949  0.82299249    -0.05400
C1501       C  0.59526333  0.84750629  0.80248940    -0.06100
C1502       C  0.58076285  0.82840135  0.78757858    -0.15700
C1503       C  0.58875906  0.80289104  0.79228338    -0.01300
C1504       C  0.60995438  0.79723513  0.81325636    -0.08800
C1505       C  0.63370954  0.86279589  0.83793243     0.65400
H1506       H  0.58904792  0.86685819  0.79805985     0.10900
C1507       C  0.57491004  0.78181674  0.77528691     0.63800
H1508       H  0.61603412  0.77787074  0.81780790     0.08200
F1509       F  0.73175554  0.79224771  0.82627409    -0.19200
F1510       F  0.73428725  0.76390161  0.86055334    -0.15500
F1511       F  0.74965208  0.80400243  0.86758976    -0.18900
F1512       F  0.58478351  0.78502178  0.86922023    -0.22300
F1513       F  0.58720486  0.82617700  0.87945616    -0.23800
F1514       F  0.59421777  0.79718212  0.91271861    -0.17800
F1515       F  0.58592831  0.75845507  0.78342147    -0.20300
F1516       F  0.58206801  0.78526783  0.74760886    -0.21400
F1517       F  0.54345330  0.78164760  0.77829983    -0.18600
F1518       F  0.62435743  0.88629629  0.82865926    -0.18700
F1519       F  0.66484950  0.86067772  0.83336487    -0.22500
F1520       F  0.62819248  0.86132907  0.86609946    -0.24100
C1521       C  0.66495505  0.80308421  0.59165260    -0.11000
C1522       C  0.63431073  0.80589353  0.58385503     0.11600
C1523       C  0.62536911  0.80129704  0.55623355    -0.02800
C1524       C  0.64750623  0.79258954  0.53746670    -0.05500
C1525       C  0.67824080  0.78860345  0.54535538    -0.16300
C1526       C  0.68725451  0.79418749  0.57311455     0.02600
C1527       C  0.61202917  0.81305398  0.60552693     0.12600
C1528       C  0.59268186  0.80586814  0.54660460     0.63200
H1529       H  0.64080070  0.78892341  0.51627478     0.12600
C1530       C  0.71972316  0.79026590  0.58386793     0.55300
H1531       H  0.67102306  0.80739680  0.61286863     0.08400
C1532       C  0.60059449  0.79515277  0.62476958    -0.05400
C1533       C  0.57993058  0.80327167  0.64510309    -0.06100
C1534       C  0.57067346  0.82847329  0.64668676    -0.15700
C1535       C  0.58234367  0.84641408  0.62774462    -0.01300
C1536       C  0.60314289  0.83836048  0.60739904    -0.08800
C1537       C  0.60999269  0.76761481  0.62373054     0.65400
H1538       H  0.57064790  0.79001409  0.66001351     0.10900
C1539       C  0.57298767  0.87384548  0.62934586     0.63800
H1540       H  0.61275039  0.85174009  0.59280429     0.08200
F1541       F  0.72220061  0.79545213  0.61187598    -0.19200
F1542       F  0.73965559  0.80611111  0.56999201    -0.15500
F1543       F  0.72851913  0.76548576  0.58019445    -0.18900
F1544       F  0.58591007  0.83122434  0.54830134    -0.22300
F1545       F  0.57246449  0.79252839  0.56307695    -0.23800
F1546       F  0.58830711  0.79850586  0.51941356    -0.17800
F1547       F  0.58127795  0.88343336  0.65483340    -0.20300
F1548       F  0.54163340  0.87603303  0.62613649    -0.21400
F1549       F  0.58690061  0.88821099  0.60891623    -0.18600
F1550       F  0.59547773  0.75345450  0.64399209    -0.18700
F1551       F  0.64118160  0.76528984  0.62785286    -0.22500
F1552       F  0.60248606  0.75768494  0.59821323    -0.24100
C1553       C  0.83773168  0.69598422  0.85174448    -0.11000
C1554       C  0.86412080  0.68429512  0.86221226     0.11600
C1555       C  0.87083605  0.68500763  0.89088146    -0.02800
C1556       C  0.84985739  0.69688864  0.90847313    -0.05500
C1557       C  0.82360257  0.70880304  0.89794199    -0.16300
C1558       C  0.81727367  0.70850537  0.86921393     0.02600
C1559       C  0.88621650  0.67489405  0.84183458     0.12600
C1560       C  0.90003414  0.67358910  0.90274074     0.63200
H1561       H  0.85403954  0.69742726  0.93060877     0.12600
C1562       C  0.78936587  0.72155353  0.85706077     0.55300
H1563       H  0.83389417  0.69591864  0.82954386     0.08400
C1564       C  0.88289294  0.65132135  0.82879247    -0.05400
C1565       C  0.90343643  0.64502730  0.80758542    -0.06100
C1566       C  0.92617541  0.66187996  0.79905252    -0.15700
C1567       C  0.92929550  0.68554289  0.81197821    -0.01300
C1568       C  0.90902301  0.69164580  0.83329465    -0.08800
C1569       C  0.85730789  0.63337658  0.83663843     0.65400
H1570       H  0.90147631  0.62723858  0.79693297     0.10900
C1571       C  0.95343036  0.70443986  0.80291283     0.63800
H1572       H  0.91031817  0.70984011  0.84320491     0.08200
F1573       F  0.78567773  0.71630280  0.82918161    -0.19200
F1574       F  0.79264512  0.74726471  0.85976633    -0.15500
F1575       F  0.76323337  0.71377198  0.87081208    -0.18900
F1576       F  0.92535333  0.68480920  0.89082565    -0.22300
F1577       F  0.90087497  0.64809899  0.89747676    -0.23800
F1578       F  0.90201707  0.67685196  0.93114392    -0.17800
F1579       F  0.94965695  0.71037048  0.77516228    -0.20300
F1580       F  0.98231168  0.69440333  0.80696565    -0.21400
F1581       F  0.95157663  0.72656528  0.81780759    -0.18600
F1582       F  0.85921297  0.61104686  0.82213511    -0.18700
F1583       F  0.82928051  0.64433157  0.83080117    -0.22500
F1584       F  0.85873537  0.62772270  0.86460596    -0.24100
C1585       C  0.85574943  0.67958875  0.56589536    -0.11000
C1586       C  0.85184637  0.68847912  0.59290041     0.11600
C1587       C  0.82865651  0.70626463  0.59876272    -0.02800
C1588       C  0.80999576  0.71477191  0.57694250    -0.05500
C1589       C  0.81419048  0.70634170  0.54966282    -0.16300
C1590       C  0.83722352  0.68813760  0.54394440     0.02600
C1591       C  0.87452484  0.68083615  0.61401515     0.12600
C1592       C  0.82434142  0.71685580  0.62771561     0.63200
H1593       H  0.79239047  0.72867430  0.58092868     0.12600
C1594       C  0.84335247  0.67853083  0.51481563     0.55300
H1595       H  0.87412086  0.66632937  0.56208643     0.08400
C1596       C  0.87337237  0.65729657  0.62784337    -0.05400
C1597       C  0.89597419  0.65175065  0.64771434    -0.06100
C1598       C  0.91861496  0.66931145  0.65441894    -0.15700
C1599       C  0.91909075  0.69313883  0.64118956    -0.01300
C1600       C  0.89764743  0.69805779  0.62025703    -0.08800
C1601       C  0.84822049  0.63842242  0.62195375     0.65400
H1602       H  0.89602890  0.63379568  0.65846602     0.10900
C1603       C  0.94091329  0.71372329  0.65019736     0.63800
H1604       H  0.89801341  0.71584040  0.60915602     0.08200
F1605       F  0.81861556  0.66469327  0.50566829    -0.19200
F1606       F  0.86889967  0.66308246  0.51386081    -0.15500
F1607       F  0.84835229  0.69857121  0.49693889    -0.18900
F1608       F  0.84902277  0.73177945  0.63456492    -0.22300
F1609       F  0.82197325  0.69751357  0.64688881    -0.23800
F1610       F  0.79812148  0.73143456  0.62954475    -0.17800
F1611       F  0.97091148  0.70595350  0.64710599    -0.20300
F1612       F  0.93561281  0.71938011  0.67772555    -0.21400
F1613       F  0.93695023  0.73557035  0.63477652    -0.18600
F1614       F  0.85078603  0.61721380  0.63863263    -0.18700
F1615       F  0.84968314  0.63087069  0.59463418    -0.22500
F1616       F  0.81993187  0.64924136  0.62681804    -0.24100
C1617       C  0.67430174  0.20517345  0.62190039    -0.11000
C1618       C  0.64618053  0.19503583  0.61383778     0.11600
C1619       C  0.63784938  0.19454638  0.58556645    -0.02800
C1620       C  0.65882023  0.20349812  0.56592762    -0.05500
C1621       C  0.68714177  0.21376619  0.57373541    -0.16300
C1622       C  0.69509951  0.21479379  0.60233886     0.02600
C1623       C  0.62476715  0.18701362  0.63573289     0.12600
C1624       C  0.60653986  0.18545725  0.57626368     0.63200
H1625       H  0.65289626  0.20294150  0.54413966     0.12600
C1626       C  0.72454271  0.22678487  0.61253411     0.55300
H1627       H  0.67953956  0.20580445  0.64384207     0.08400
C1628       C  0.62605240  0.16277273  0.64797329    -0.05400
C1629       C  0.60409188  0.15645781  0.66810639    -0.06100
C1630       C  0.58159395  0.17377706  0.67614386    -0.15700
C1631       C  0.58095804  0.19828123  0.66443848    -0.01300
C1632       C  0.60289356  0.20452329  0.64442726    -0.08800
C1633       C  0.65056446  0.14389038  0.63987888     0.65400
H1634       H  0.60423482  0.13800943  0.67777399     0.10900
C1635       C  0.55732347  0.21775821  0.67310983     0.63800
H1636       H  0.60296684  0.22308664  0.63501569     0.08200
F1637       F  0.72534463  0.22856592  0.64116250    -0.19200
F1638       F  0.72705019  0.25085222  0.60176683    -0.15500
F1639       F  0.74944692  0.21250918  0.60443649    -0.18900
F1640       F  0.58411225  0.20128179  0.58644766    -0.22300
F1641       F  0.60134264  0.16134845  0.58599776    -0.23800
F1642       F  0.60394000  0.18516220  0.54765631    -0.17800
F1643       F  0.56219218  0.24078873  0.66031086    -0.20300
F1644       F  0.55868503  0.22130485  0.70145462    -0.21400
F1645       F  0.52831267  0.20978211  0.66597588    -0.18600
F1646       F  0.64755349  0.12142403  0.65428788    -0.18700
F1647       F  0.67919803  0.15355950  0.64560169    -0.22500
F1648       F  0.64865772  0.13879986  0.61187460    -0.24100
C1649       C  0.66850190  0.19147479  0.87347994    -0.11000
C1650       C  0.64080560  0.18242096  0.88399365     0.11600
C1651       C  0.63585995  0.18135632  0.91287995    -0.02800
C1652       C  0.65786871  0.19217345  0.93037366    -0.05500
C1653       C  0.68473396  0.20326540  0.91977749    -0.16300
C1654       C  0.69075030  0.20208534  0.89080863     0.02600
C1655       C  0.61646283  0.17679265  0.86376113     0.12600
C1656       C  0.60773792  0.16858900  0.92499601     0.63200
H1657       H  0.65404003  0.19230662  0.95255388     0.12600
C1658       C  0.71947094  0.21306456  0.87773425     0.55300
H1659       H  0.67172730  0.19135022  0.85121313     0.08400
C1660       C  0.59656875  0.19603571  0.85409526    -0.05400
C1661       C  0.57546782  0.19026424  0.83320807    -0.06100
C1662       C  0.57472861  0.16642397  0.82108194    -0.15700
C1663       C  0.59492171  0.14727785  0.83034791    -0.01300
C1664       C  0.61552134  0.15279815  0.85189335    -0.08800
C1665       C  0.59865961  0.22285416  0.86479567     0.65400
H1666       H  0.56001757  0.20460901  0.82533471     0.10900
C1667       C  0.59440655  0.12123985  0.81766101     0.63800
H1668       H  0.63146588  0.13863070  0.85931496     0.08200
F1669       F  0.71905689  0.21137435  0.84909935    -0.19200
F1670       F  0.74498765  0.20008526  0.88709926    -0.15500
F1671       F  0.72196931  0.23823138  0.88443943    -0.18900
F1672       F  0.60760988  0.14357761  0.91735606    -0.22300
F1673       F  0.58126309  0.17989930  0.91530038    -0.23800
F1674       F  0.60740854  0.16963999  0.95367236    -0.17800
F1675       F  0.59928893  0.12278683  0.78938845    -0.20300
F1676       F  0.56625016  0.11025979  0.82249833    -0.21400
F1677       F  0.61685995  0.10577367  0.82883471    -0.18600
F1678       F  0.57705050  0.23845967  0.85254585    -0.18700
F1679       F  0.62726874  0.23258896  0.85900566    -0.22500
F1680       F  0.59400133  0.22335123  0.89310218    -0.24100
C1681       C  0.83638995  0.31737478  0.60396973    -0.11000
C1682       C  0.86758322  0.31238363  0.59997545     0.11600
C1683       C  0.87755364  0.29904346  0.57632687    -0.02800
C1684       C  0.85546383  0.29086919  0.55731808    -0.05500
C1685       C  0.82425869  0.29539983  0.56167653    -0.16300
C1686       C  0.81434796  0.30903208  0.58502998     0.02600
C1687       C  0.88880179  0.31928402  0.62238330     0.12600
C1688       C  0.91113785  0.29284038  0.57164070     0.63200
H1689       H  0.86224505  0.28013688  0.53930772     0.12600
C1690       C  0.78063966  0.31392249  0.59022802     0.55300
H1691       H  0.82943727  0.32723997  0.62251731     0.08400
C1692       C  0.90068311  0.34385152  0.62495153    -0.05400
C1693       C  0.92052937  0.34885701  0.64712582    -0.06100
C1694       C  0.92757571  0.33032033  0.66694043    -0.15700
C1695       C  0.91494549  0.30592628  0.66477626    -0.01300
C1696       C  0.89568357  0.30081848  0.64228845    -0.08800
C1697       C  0.89162815  0.36474930  0.60493226     0.65400
H1698       H  0.93039293  0.36738559  0.64948688     0.10900
C1699       C  0.92161342  0.28550967  0.68613486     0.63800
H1700       H  0.88557045  0.28236091  0.64007032     0.08200
F1701       F  0.77588247  0.32730922  0.61437575    -0.19200
F1702       F  0.76534540  0.29130038  0.59255102    -0.15500
F1703       F  0.76842811  0.32761810  0.56837315    -0.18900
F1704       F  0.92166629  0.27718540  0.59258595    -0.22300
F1705       F  0.92828775  0.31462809  0.57143125    -0.23800
F1706       F  0.91575979  0.28079188  0.54662015    -0.17800
F1707       F  0.91093667  0.29293575  0.71171327    -0.20300
F1708       F  0.95276734  0.28113442  0.68780727    -0.21400
F1709       F  0.90748387  0.26304474  0.67959271    -0.18600
F1710       F  0.90763785  0.38667720  0.60996312    -0.18700
F1711       F  0.86074758  0.36986438  0.60773234    -0.22500
F1712       F  0.89740669  0.35764121  0.57793225    -0.24100
C1713       C  0.88658828  0.30484367  0.83218181    -0.11000
C1714       C  0.87221712  0.32374206  0.84752290     0.11600
C1715       C  0.87946649  0.34932489  0.84242674    -0.02800
C1716       C  0.90178372  0.35501618  0.82232288    -0.05500
C1717       C  0.91624301  0.33598074  0.80716268    -0.16300
C1718       C  0.90790598  0.31052814  0.81141618     0.02600
C1719       C  0.85116586  0.31564946  0.86989440     0.12600
C1720       C  0.86384142  0.37040741  0.85815129     0.63200
H1721       H  0.90852199  0.37432392  0.81853913     0.12600
C1722       C  0.92178471  0.28938593  0.79449495     0.55300
H1723       H  0.88129162  0.28541490  0.83701385     0.08400
C1724       C  0.82229409  0.30475491  0.86420236    -0.05400
C1725       C  0.80521633  0.29489573  0.88638964    -0.06100
C1726       C  0.81598036  0.29590238  0.91373035    -0.15700
C1727       C  0.84453066  0.30729778  0.91952610    -0.01300
C1728       C  0.86189674  0.31666875  0.89726461    -0.08800
C1729       C  0.80969836  0.30324047  0.83488332     0.65400
H1730       H  0.78339448  0.28593745  0.88253965     0.10900
C1731       C  0.85716761  0.30866034  0.94884727     0.63800
H1732       H  0.88443594  0.32439184  0.90094044     0.08200
F1733       F  0.90785941  0.26653799  0.80004129    -0.19200
F1734       F  0.95261162  0.28704140  0.80038965    -0.15500
F1735       F  0.91814151  0.29439118  0.76658829    -0.18900
F1736       F  0.87224654  0.36953693  0.88576317    -0.22300
F1737       F  0.83241612  0.36796934  0.85613762    -0.23800
F1738       F  0.87172480  0.39382326  0.84769170    -0.17800
F1739       F  0.85850243  0.28480660  0.96043615    -0.20300
F1740       F  0.83851726  0.32375970  0.96487322    -0.21400
F1741       F  0.88636927  0.31870886  0.94940802    -0.18600
F1742       F  0.77969224  0.29493332  0.83460870    -0.18700
F1743       F  0.82694815  0.28665433  0.81941074    -0.22500
F1744       F  0.81044937  0.32673276  0.82243724    -0.24100
C1745       C  0.36015437  0.19308794  0.90129754    -0.11000
C1746       C  0.35398464  0.19793725  0.87332007     0.11600
C1747       C  0.32689682  0.21078582  0.86545910    -0.02800
C1748       C  0.30739595  0.21967259  0.88641294    -0.05500
C1749       C  0.31461344  0.21627690  0.91456314    -0.16300
C1750       C  0.34104555  0.20228830  0.92227951     0.02600
C1751       C  0.37740186  0.19068168  0.85283112     0.12600
C1752       C  0.31904725  0.21535167  0.83513657     0.63200
H1753       H  0.28679916  0.22999424  0.88099818     0.12600
C1754       C  0.34890927  0.19669016  0.95242273     0.55300
H1755       H  0.38077901  0.18273077  0.90654485     0.08400
C1756       C  0.40337318  0.20593017  0.84796422    -0.05400
C1757       C  0.42391669  0.19882101  0.82715638    -0.06100
C1758       C  0.41988159  0.17657323  0.81224736    -0.15700
C1759       C  0.39486206  0.16058359  0.81812740    -0.01300
C1760       C  0.37367718  0.16811739  0.83836440    -0.08800
C1761       C  0.40986114  0.22911773  0.86523744     0.65400
H1762       H  0.44377415  0.21030062  0.82265583     0.10900
C1763       C  0.39102915  0.13558058  0.80352643     0.63800
H1764       H  0.35399960  0.15651055  0.84307998     0.08200
F1765       F  0.37319168  0.18002060  0.95482194    -0.19200
F1766       F  0.32391792  0.18609159  0.96561466    -0.15500
F1767       F  0.35709595  0.21858961  0.96576709    -0.18900
F1768       F  0.31544351  0.19258494  0.82187331    -0.22300
F1769       F  0.34226952  0.22869176  0.82233638    -0.23800
F1770       F  0.29214468  0.22892181  0.83205455    -0.17800
F1771       F  0.36704271  0.12180075  0.81451606    -0.20300
F1772       F  0.41748457  0.12142462  0.80631623    -0.21400
F1773       F  0.38515510  0.13953640  0.77568664    -0.18600
F1774       F  0.43494279  0.24230004  0.85541960    -0.18700
F1775       F  0.41596046  0.22191958  0.89228844    -0.22500
F1776       F  0.38491570  0.24518047  0.86488382    -0.24100
C1777       C  0.34235913  0.21310573  0.61233924    -0.11000
C1778       C  0.36645562  0.19743195  0.60426508     0.11600
C1779       C  0.36878400  0.18937241  0.57644190    -0.02800
C1780       C  0.34678253  0.19791026  0.55719466    -0.05500
C1781       C  0.32283410  0.21390585  0.56526525    -0.16300
C1782       C  0.32082245  0.22204434  0.59310263     0.02600
C1783       C  0.38897814  0.18994647  0.62563261     0.12600
C1784       C  0.39444467  0.17197407  0.56729973     0.63200
H1785       H  0.34805261  0.19217023  0.53571863     0.12600
C1786       C  0.29723391  0.24133500  0.60201362     0.55300
H1787       H  0.34102564  0.21873922  0.63384814     0.08400
C1788       C  0.41217539  0.20652461  0.63466313    -0.05400
C1789       C  0.43222085  0.19825606  0.65556106    -0.06100
C1790       C  0.42918045  0.17443246  0.66788235    -0.15700
C1791       C  0.40599639  0.15785283  0.65881804    -0.01300
C1792       C  0.38612058  0.16607001  0.63779019    -0.08800
C1793       C  0.41531460  0.23296003  0.62280328     0.65400
H1794       H  0.44995610  0.21063653  0.66316555     0.10900
C1795       C  0.40115094  0.13146951  0.67017707     0.63800
H1796       H  0.36792269  0.15376637  0.63089424     0.08200
F1797       F  0.30122639  0.24854933  0.62929870    -0.19200
F1798       F  0.26814198  0.23146131  0.59951655    -0.15500
F1799       F  0.29985849  0.26256712  0.58542580    -0.18900
F1800       F  0.39191856  0.14905779  0.58080452    -0.22300
F1801       F  0.42249479  0.18248761  0.57359646    -0.23800
F1802       F  0.39358416  0.16763510  0.53905175    -0.17800
F1803       F  0.37161122  0.12943557  0.68024485    -0.20300
F1804       F  0.42112783  0.12499534  0.69128019    -0.21400
F1805       F  0.40498870  0.11441627  0.64892694    -0.18600
F1806       F  0.44108694  0.24497263  0.63283594    -0.18700
F1807       F  0.39004797  0.24721944  0.62993533    -0.22500
F1808       F  0.41758101  0.23208239  0.59424330    -0.24100
C1809       C  0.12353541  0.29723470  0.89618315    -0.11000
C1810       C  0.13572431  0.31521781  0.87793578     0.11600
C1811       C  0.16618669  0.32364304  0.88120135    -0.02800
C1812       C  0.18418448  0.31263238  0.90214788    -0.05500
C1813       C  0.17233112  0.29392605  0.91963897    -0.16300
C1814       C  0.14148175  0.28635584  0.91721786     0.02600
C1815       C  0.11593007  0.32467834  0.85541253     0.12600
C1816       C  0.17948898  0.34408848  0.86267403     0.63200
H1817       H  0.20775962  0.31836513  0.90493247     0.12600
C1818       C  0.12756125  0.26743904  0.93725463     0.55300
H1819       H  0.09987728  0.29166168  0.89359028     0.08400
C1820       C  0.11084892  0.31048303  0.83117387    -0.05400
C1821       C  0.09044290  0.32001380  0.81129288    -0.06100
C1822       C  0.07575323  0.34329437  0.81475201    -0.15700
C1823       C  0.08218340  0.35809871  0.83830192    -0.01300
C1824       C  0.10167486  0.34810802  0.85869626    -0.08800
C1825       C  0.12656380  0.28531023  0.82648935     0.65400
H1826       H  0.08515929  0.30908117  0.79303533     0.10900
C1827       C  0.06982796  0.38443906  0.84282431     0.63800
H1828       H  0.10598650  0.35878157  0.87736733     0.08200
F1829       F  0.14259748  0.24460478  0.93525120    -0.19200
F1830       F  0.09682480  0.26345952  0.93187122    -0.15500
F1831       F  0.13024901  0.27624891  0.96406437    -0.18900
F1832       F  0.16385324  0.36638996  0.86677496    -0.22300
F1833       F  0.17696541  0.33734275  0.83513836    -0.23800
F1834       F  0.21011547  0.34827220  0.86832592    -0.17800
F1835       F  0.05317692  0.38494144  0.86719017    -0.20300
F1836       F  0.05127034  0.39295144  0.82151170    -0.21400
F1837       F  0.09418918  0.40086243  0.84511438    -0.18600
F1838       F  0.12064928  0.27601929  0.80028040    -0.18700
F1839       F  0.11632407  0.26788958  0.84572262    -0.22500
F1840       F  0.15791006  0.28787947  0.82914144    -0.24100
C1841       C  0.17892123  0.31210533  0.61735870    -0.11000
C1842       C  0.14703811  0.31005147  0.61574092     0.11600
C1843       C  0.13321272  0.29786245  0.59293395    -0.02800
C1844       C  0.15219145  0.28706230  0.57279877    -0.05500
C1845       C  0.18405538  0.28862962  0.57475857    -0.16300
C1846       C  0.19783265  0.30152636  0.59702101     0.02600
C1847       C  0.12849098  0.32036247  0.63851831     0.12600
C1848       C  0.09864462  0.29653528  0.58977694     0.63200
H1849       H  0.14233963  0.27758656  0.55510833     0.12600
C1850       C  0.23228856  0.30363839  0.59934832     0.55300
H1851       H  0.18880338  0.32185788  0.63484291     0.08400
C1852       C  0.12263982  0.30615187  0.66282255    -0.05400
C1853       C  0.10123161  0.31547699  0.68183172    -0.06100
C1854       C  0.08600023  0.33836088  0.67706992    -0.15700
C1855       C  0.09358661  0.35341221  0.65382392    -0.01300
C1856       C  0.11514450  0.34415535  0.63487195    -0.08800
C1857       C  0.13842214  0.28106823  0.66821197     0.65400
H1858       H  0.09520970  0.30452898  0.70004355     0.10900
C1859       C  0.07858641  0.37883681  0.64899859     0.63800
H1860       H  0.12075078  0.35486806  0.61638490     0.08200
F1861       F  0.24473716  0.27982094  0.60101794    -0.19200
F1862       F  0.24111212  0.31677287  0.62270067    -0.15500
F1863       F  0.24388213  0.31591489  0.57628499    -0.18900
F1864       F  0.08669565  0.32055219  0.58733032    -0.22300
F1865       F  0.08588737  0.28479179  0.61264714    -0.23800
F1866       F  0.09017568  0.28322978  0.56643688    -0.17800
F1867       F  0.09046518  0.39097440  0.62592821    -0.20300
F1868       F  0.08336565  0.39393164  0.67181533    -0.21400
F1869       F  0.04747921  0.37593972  0.64495443    -0.18600
F1870       F  0.12877348  0.27008038  0.69278779    -0.18700
F1871       F  0.16970515  0.28459352  0.66993176    -0.22500
F1872       F  0.13222194  0.26457224  0.64691460    -0.24100
C1873       C  0.87325453  0.15002325  0.98430086    -0.11000
C1874       C  0.85992988  0.12764725  0.99392391     0.11600
C1875       C  0.82880455  0.12728231  0.00192610    -0.02800
C1876       C  0.81183905  0.14968081  0.99994931    -0.05500
C1877       C  0.82494832  0.17195364  0.98981921    -0.16300
C1878       C  0.85606663  0.17230750  0.98169783     0.02600
C1879       C  0.87922011  0.10480571  0.99528552     0.12600
C1880       C  0.81363367  0.10334272  0.01235365     0.63200
H1881       H  0.78803126  0.15000685  0.00621972     0.12600
C1882       C  0.86320534  0.19115875  0.46360779     0.55300
H1883       H  0.89725443  0.14977346  0.97867201     0.08400
C1884       C  0.88509656  0.09021596  0.97144652    -0.05400
C1885       C  0.90374961  0.06884502  0.97413068    -0.06100
C1886       C  0.91764484  0.06258874  0.99942177    -0.15700
C1887       C  0.91175314  0.07705105  0.02333371    -0.01300
C1888       C  0.89236304  0.09807619  0.02084501    -0.08800
C1889       C  0.87310444  0.09792466  0.94306809     0.65400
H1890       H  0.90933470  0.05769520  0.95610373     0.10900
C1891       C  0.93915528  0.08015582  0.55452315     0.63800
H1892       H  0.89962891  0.11665612  0.54181311     0.08200
F1893       F  0.85698009  0.20407098  0.94685829    -0.19200
F1894       F  0.89243501  0.18675781  0.45364235    -0.15500
F1895       F  0.86377751  0.21323997  0.47859761    -0.18900
F1896       F  0.82772226  0.09519617  0.03647281    -0.22300
F1897       F  0.81599964  0.08474173  0.99258420    -0.23800
F1898       F  0.78287538  0.10700688  0.01798330    -0.17800
F1899       F  0.95965616  0.09992630  0.55390421    -0.20300
F1900       F  0.95546485  0.05793415  0.55694838    -0.21400
F1901       F  0.92100561  0.08239620  0.57788331    -0.18600
F1902       F  0.87966718  0.08004882  0.92318756    -0.18700
F1903       F  0.88658541  0.12027580  0.93495358    -0.22500
F1904       F  0.84171595  0.10112022  0.94389134    -0.24100
C1905       C  0.09851938  0.10584166  0.01754448    -0.11000
C1906       C  0.11691857  0.10970409  0.99412329     0.11600
C1907       C  0.11497744  0.09301289  0.97144693    -0.02800
C1908       C  0.09395535  0.07303502  0.97284840    -0.05500
C1909       C  0.07494056  0.06955950  0.99599883    -0.16300
C1910       C  0.07707427  0.08620034  0.01875286     0.02600
C1911       C  0.13783534  0.13163294  0.99388340     0.12600
C1912       C  0.13490763  0.09645966  0.94590443     0.63200
H1913       H  0.09191862  0.06003757  0.95576131     0.12600
C1914       C  0.05751295  0.08636757  0.54283632     0.55300
H1915       H  0.10064881  0.11880218  0.03465794     0.08400
C1916       C  0.12747481  0.15603707  0.98650253    -0.05400
C1917       C  0.14875162  0.17581137  0.98585296    -0.06100
C1918       C  0.17936563  0.17209094  0.99366632    -0.15700
C1919       C  0.18953431  0.14785786  0.00191939    -0.01300
C1920       C  0.16846516  0.12787339  0.00169804    -0.08800
C1921       C  0.09395912  0.16128640  0.98019280     0.65400
H1922       H  0.14145018  0.19461144  0.98001602     0.10900
C1923       C  0.21808729  0.14591633  0.51704818     0.63800
H1924       H  0.17347363  0.11060708  0.51029836     0.08200
F1925       F  0.02669309  0.08890989  0.03708183    -0.19200
F1926       F  0.06694306  0.10347755  0.56256198    -0.15500
F1927       F  0.05829891  0.05906327  0.05426551    -0.18900
F1928       F  0.16543355  0.09448066  0.95318014    -0.22300
F1929       F  0.12971861  0.11988834  0.93417847    -0.23800
F1930       F  0.12887782  0.07851209  0.92599484    -0.17800
F1931       F  0.21887455  0.16022085  0.54086492    -0.20300
F1932       F  0.24128698  0.15352257  0.49940397    -0.21400
F1933       F  0.22359742  0.12113499  0.52455962    -0.18600
F1934       F  0.08915998  0.18599866  0.97200860    -0.18700
F1935       F  0.07661876  0.15684249  0.00367409    -0.22500
F1936       F  0.08382118  0.14589092  0.95915151    -0.24100
C1937       C  0.17370289  0.87523923  0.99306534    -0.11000
C1938       C  0.14191872  0.87421547  0.98922010     0.11600
C1939       C  0.12775212  0.85119698  0.98209819    -0.02800
C1940       C  0.14620407  0.82971152  0.97895606    -0.05500
C1941       C  0.17791092  0.83072395  0.98297766    -0.16300
C1942       C  0.19206504  0.85363981  0.99022326     0.02600
C1943       C  0.12397057  0.89776807  0.99116120     0.12600
C1944       C  0.09548702  0.85150640  0.46805708     0.63200
H1945       H  0.13885219  0.81439231  0.46458989     0.12600
C1946       C  0.22647616  0.85517587  0.99424164     0.55300
H1947       H  0.18397738  0.89314366  0.99812430     0.08400
C1948       C  0.11175845  0.90635977  0.01653428    -0.05400
C1949       C  0.09080773  0.92649819  0.01588855    -0.06100
C1950       C  0.08303915  0.93866796  0.99091163    -0.15700
C1951       C  0.09771569  0.93157050  0.96593721    -0.01300
C1952       C  0.11777095  0.91094041  0.96653814    -0.08800
C1953       C  0.11923781  0.89066119  0.54130484     0.65400
H1954       H  0.07999472  0.93276870  0.03483618     0.10900
C1955       C  0.09266149  0.94440219  0.93807285     0.63800
H1956       H  0.12809333  0.90454307  0.94738050     0.08200
F1957       F  0.23585489  0.87939089  0.00016906    -0.19200
F1958       F  0.24116292  0.84755190  0.97030844    -0.15500
F1959       F  0.23532879  0.83969175  0.01598792    -0.18900
F1960       F  0.08435117  0.86493152  0.95619628    -0.22300
F1961       F  0.07802935  0.85715660  0.49110342    -0.23800
F1962       F  0.08740506  0.82771501  0.45925312    -0.17800
F1963       F  0.12061688  0.95195708  0.92748974    -0.20300
F1964       F  0.07397038  0.96535817  0.93940166    -0.21400
F1965       F  0.07960124  0.92746926  0.91996614    -0.18600
F1966       F  0.10312254  0.89941922  0.56399844    -0.18700
F1967       F  0.15219069  0.89802791  0.04805662    -0.22500
F1968       F  0.11265091  0.86541894  0.53825596    -0.24100
C1969       C  0.88402319  0.90866798  0.96329324    -0.11000
C1970       C  0.88345884  0.89109750  0.98508433     0.11600
C1971       C  0.90339727  0.89412617  0.00796387    -0.02800
C1972       C  0.92343714  0.91479675  0.00812693    -0.05500
C1973       C  0.92406456  0.93242850  0.98632935    -0.16300
C1974       C  0.90371516  0.92954808  0.96354794     0.02600
C1975       C  0.86245482  0.86923410  0.98287117     0.12600
C1976       C  0.90367624  0.87549725  0.03197748     0.63200
H1977       H  0.93908086  0.91734512  0.02530840     0.12600
C1978       C  0.90150272  0.94746789  0.93895183     0.55300
H1979       H  0.86881143  0.90600790  0.94577905     0.08400
C1980       C  0.83100419  0.87090006  0.98983491    -0.05400
C1981       C  0.81276346  0.84918635  0.98774382    -0.06100
C1982       C  0.82476992  0.82644408  0.97791072    -0.15700
C1983       C  0.85604202  0.82491422  0.97039874    -0.01300
C1984       C  0.87444268  0.84645520  0.97307695    -0.08800
C1985       C  0.81755955  0.89602573  0.49831291     0.65400
H1986       H  0.78935177  0.85065929  0.49169469     0.10900
C1987       C  0.86994191  0.80048676  0.96014217     0.63800
H1988       H  0.89844120  0.84575060  0.96749344     0.08200
F1989       F  0.87203149  0.95701862  0.93745447    -0.19200
F1990       F  0.90759308  0.93443364  0.91484849    -0.15500
F1991       F  0.92153513  0.96743960  0.94029029    -0.18900
F1992       F  0.91337026  0.85223440  0.02280842    -0.22300
F1993       F  0.87432288  0.86979079  0.54090457    -0.23800
F1994       F  0.92261710  0.87932484  0.55213245    -0.17800
F1995       F  0.85628345  0.79368097  0.93545438    -0.20300
F1996       F  0.86540367  0.78164667  0.97962562    -0.21400
F1997       F  0.90111522  0.80263858  0.95557260    -0.18600
F1998       F  0.78761579  0.89279637  0.50699871    -0.18700
F1999       F  0.81765649  0.91347893  0.47693505    -0.22500
F2000       F  0.83411318  0.90539404  0.52035944    -0.24100
C2001       C  0.61665964  0.40946265  0.00390599    -0.11000
C2002       C  0.61501006  0.39159315  0.98271151     0.11600
C2003       C  0.59288522  0.39451741  0.96144701    -0.02800
C2004       C  0.57408687  0.41612515  0.96139509    -0.05500
C2005       C  0.57583995  0.43415095  0.98250611    -0.16300
C2006       C  0.58619416  0.42559563  0.50956709     0.02600
C2007       C  0.63613979  0.36955520  0.98405627     0.12600
C2008       C  0.58840477  0.37443733  0.93958227     0.63200
H2009       H  0.55705370  0.41878034  0.94530152     0.12600
C2010       C  0.57537313  0.43770438  0.53624815     0.55300
H2011       H  0.61343847  0.39705601  0.53035678     0.08400
C2012       C  0.66634514  0.37069797  0.97358829    -0.05400
C2013       C  0.68515682  0.34924574  0.97581957    -0.06100
C2014       C  0.67523249  0.32703169  0.98900617    -0.15700
C2015       C  0.64250933  0.32511812  0.48668926    -0.01300
C2016       C  0.62449990  0.34717321  0.48615353    -0.08800
C2017       C  0.67889308  0.39468988  0.96069884     0.65400
H2018       H  0.70808114  0.34976052  0.96732211     0.10900
C2019       C  0.62649980  0.29993657  0.48347181     0.63800
H2020       H  0.59994565  0.34605436  0.48333500     0.08200
F2021       F  0.60559912  0.47228797  0.02017390    -0.19200
F2022       F  0.54378348  0.43729635  0.53770506    -0.15500
F2023       F  0.58668548  0.42530183  0.55943844    -0.18900
F2024       F  0.60529944  0.36629308  0.43201343    -0.22300
F2025       F  0.61547338  0.37014317  0.92556526    -0.23800
F2026       F  0.56636400  0.38134602  0.92031574    -0.17800
F2027       F  0.59524155  0.30270529  0.47960581    -0.20300
F2028       F  0.63075394  0.28548217  0.50712830    -0.21400
F2029       F  0.63799840  0.28745190  0.46065286    -0.18600
F2030       F  0.70862919  0.39161555  0.95136360    -0.18700
F2031       F  0.67888140  0.41362434  0.98018517    -0.22500
F2032       F  0.66101221  0.40202921  0.93841303    -0.24100
C2033       C  0.32211747  0.38155335  0.98414097    -0.11000
C2034       C  0.35117797  0.37867960  0.99611663     0.11600
C2035       C  0.35930140  0.35558673  0.00889455    -0.02800
C2036       C  0.33881904  0.33534933  0.00720936    -0.05500
C2037       C  0.31020651  0.33769350  0.99406748    -0.16300
C2038       C  0.30122557  0.36144198  0.98292229     0.02600
C2039       C  0.37344475  0.39959599  0.99330239     0.12600
C2040       C  0.38932515  0.35240007  0.02446896     0.63200
H2041       H  0.34494948  0.31741734  0.01648358     0.12600
C2042       C  0.27035654  0.36554144  0.96902720     0.55300
H2043       H  0.31626236  0.39967080  0.97516651     0.08400
C2044       C  0.39005172  0.40345853  0.96840030    -0.05400
C2045       C  0.41179874  0.42284182  0.96731515    -0.06100
C2046       C  0.41742611  0.43817489  0.99023001    -0.15700
C2047       C  0.40475889  0.43162924  0.50799358    -0.01300
C2048       C  0.38389261  0.41172347  0.51027148    -0.08800
C2049       C  0.38504395  0.38700176  0.94318553     0.65400
H2050       H  0.42479854  0.42620033  0.94854226     0.10900
C2051       C  0.41417124  0.44619863  0.53356101     0.63800
H2052       H  0.37496099  0.40627281  0.53037501     0.08200
F2053       F  0.26625474  0.34809086  0.94822336    -0.19200
F2054       F  0.26480747  0.39097760  0.50695911    -0.15500
F2055       F  0.24721558  0.36315008  0.98840512    -0.18900
F2056       F  0.41433548  0.36003705  0.51653215    -0.22300
F2057       F  0.41368491  0.35877184  0.00756844    -0.23800
F2058       F  0.39368990  0.32787449  0.03351620    -0.17800
F2059       F  0.39881843  0.43799887  0.55702052    -0.20300
F2060       F  0.40761597  0.47145543  0.52983362    -0.21400
F2061       F  0.44523032  0.44329391  0.53812589    -0.18600
F2062       F  0.40507067  0.39290910  0.92189568    -0.18700
F2063       F  0.35556534  0.39024376  0.93334174    -0.22500
F2064       F  0.38948909  0.36200074  0.95023148    -0.24100
C2065       C  0.39733271  0.60265396  0.93953380    -0.11000
C2066       C  0.37861333  0.60927398  0.96185883     0.11600
C2067       C  0.38605670  0.59765773  0.48996806    -0.02800
C2068       C  0.40723416  0.57771087  0.49011160    -0.05500
C2069       C  0.41959583  0.56831784  0.96650590    -0.16300
C2070       C  0.41778756  0.58223012  0.94134016     0.02600
C2071       C  0.35883706  0.63187478  0.95897913     0.12600
C2072       C  0.37474071  0.60845775  0.51720258     0.63200
H2073       H  0.41561559  0.57001808  0.50954822     0.12600
C2074       C  0.43719788  0.57542871  0.91644616     0.55300
H2075       H  0.39603002  0.61392038  0.92076767     0.08400
C2076       C  0.36462454  0.65352684  0.45708342    -0.05400
C2077       C  0.34324800  0.67328675  0.45749692    -0.06100
C2078       C  0.31749647  0.67278278  0.95812395    -0.15700
C2079       C  0.30886245  0.64947781  0.94613089    -0.01300
C2080       C  0.32954114  0.62913842  0.94758576    -0.08800
C2081       C  0.39818248  0.65901355  0.45139520     0.65400
H2082       H  0.35113118  0.69228192  0.45377341     0.10900
C2083       C  0.27859247  0.64606851  0.93106762     0.63800
H2084       H  0.32285936  0.61078403  0.94012098     0.08200
F2085       F  0.46769598  0.57858817  0.92269541    -0.19200
F2086       F  0.43050855  0.59038368  0.89359730    -0.15500
F2087       F  0.43213427  0.55063886  0.90935987    -0.18900
F2088       F  0.32724335  0.59802514  0.00086667    -0.22300
F2089       F  0.37929943  0.63417455  0.51765625    -0.23800
F2090       F  0.38996176  0.59805485  0.53973260    -0.17800
F2091       F  0.27868277  0.62452875  0.91509362    -0.20300
F2092       F  0.27324371  0.66628890  0.91345350    -0.21400
F2093       F  0.25496503  0.64412971  0.95000193    -0.18600
F2094       F  0.40353435  0.68449062  0.44789884    -0.18700
F2095       F  0.40730757  0.64700165  0.42745305    -0.22500
F2096       F  0.41596639  0.65056629  0.47329868    -0.24100
C2097       C  0.62929079  0.65049437  0.97839771    -0.11000
C2098       C  0.63765601  0.62914878  0.96332063     0.11600
C2099       C  0.66898390  0.62696928  0.46057119    -0.02800
C2100       C  0.68768317  0.64845298  0.46104257    -0.05500
C2101       C  0.67599392  0.67180279  0.96421809    -0.16300
C2102       C  0.64795602  0.67197321  0.97919294     0.02600
C2103       C  0.61738526  0.60684207  0.96478372     0.12600
C2104       C  0.68297313  0.60117296  0.45557579     0.63200
H2105       H  0.71196864  0.64637370  0.45723047     0.12600
C2106       C  0.63794207  0.69430848  0.99655707     0.55300
H2107       H  0.60790354  0.65005431  0.98973568     0.08400
C2108       C  0.60589827  0.59846195  0.49226843    -0.05400
C2109       C  0.58690900  0.57721684  0.49235717    -0.06100
C2110       C  0.57668103  0.56579670  0.96614016    -0.15700
C2111       C  0.57724888  0.58203581  0.94268535    -0.01300
C2112       C  0.59738094  0.60257463  0.94265453    -0.08800
C2113       C  0.61401021  0.61102335  0.51949478     0.65400
H2114       H  0.57828532  0.56963610  0.51172777     0.10900
C2115       C  0.55669346  0.57779261  0.91781911     0.63800
H2116       H  0.59742516  0.61575904  0.92543583     0.08200
F2117       F  0.66101007  0.70085694  0.01478913    -0.19200
F2118       F  0.61206105  0.68902382  0.01205089    -0.15500
F2119       F  0.63114586  0.71453540  0.97941339    -0.18900
F2120       F  0.67284047  0.59195118  0.43047653    -0.22300
F2121       F  0.67455842  0.58469834  0.47653173    -0.23800
F2122       F  0.71462798  0.60202421  0.45487508    -0.17800
F2123       F  0.56010545  0.55341530  0.90850129    -0.20300
F2124       F  0.52662525  0.58181329  0.92511716    -0.21400
F2125       F  0.56353064  0.59399694  0.89610436    -0.18600
F2126       F  0.60407766  0.59712896  0.54211997    -0.18700
F2127       F  0.63080679  0.61672656  0.02556184    -0.22500
F2128       F  0.64537547  0.61377745  0.52169201    -0.24100
loop_ 
_geom_bond_atom_site_label_1 
_geom_bond_atom_site_label_2 
_geom_bond_distance 
_geom_bond_site_symmetry_2 
_ccdc_geom_bond_type 
N1            C6   1.356       .  A
N1            C5   1.353       .  A
N1           H33   1.032       .  S
N2            C9   1.349       .  A
N2         C1074   1.352       .  A
N3            C8   1.354       .  A
N3            C7   1.356       .  A
N3           H34   1.037       .  S
N4           C12   1.349       .  A
N4         C1075   1.353       .  A
C5           C13   1.389       .  A
C5           C21   1.418       .  A
C6           C22   1.416       .  A
C6           C14   1.386       .  A
C7           C15   1.387   1_556  A
C7           C24   1.420       .  A
C8           C23   1.419       .  A
C8           C16   1.388   1_556  A
C9           C21   1.415       .  A
C9           C17   1.387       .  A
C10        N1066   1.353       .  A
C10          C24   1.417       .  A
C10        C1082   1.387       .  A
C11        N1068   1.349       .  A
C11          C22   1.410       .  A
C11        C1083   1.386       .  A
C12          C20   1.388       .  A
C12          C23   1.415       .  A
C13          C14   1.370       .  A
C13          H25   1.082       .  S
C14          H26   1.082       .  S
C15          C16   1.376       .  A
C15          H27   1.082       .  S
C16          H28   1.082       .  S
C17          C18   1.375       .  A
C17          H29   1.082       .  S
C18        C1074   1.387       .  A
C18          H30   1.082       .  S
C19          C20   1.376       .  A
C19        C1075   1.384       .  A
C19          H31   1.082       .  S
C20          H32   1.082       .  S
C21        C1046   1.484       .  S
C22        C1005   1.486       .  S
C23        C2046   1.488       .  S
C24        C2005   1.499       .  S
N35          C40   1.353   1_655  A
N35          C39   1.348       .  A
N35          H67   1.041   1_655  S
N36          C43   1.348   1_565  A
N36          C44   1.350       .  A
N37          C42   1.351       .  A
N37          C41   1.355   1_455  A
N37          H68   1.039       .  S
N38          C45   1.350       .  A
N38          C46   1.346   1_545  A
C39          C47   1.388       .  A
C39          C55   1.410       .  A
C40          C56   1.409       .  A
C40          C48   1.386       .  A
C41          C49   1.387       .  A
C41          C58   1.416       .  A
C42          C57   1.415       .  A
C42          C50   1.388       .  A
C43          C55   1.410       .  A
C43          C51   1.387       .  A
C44          C58   1.412       .  A
C44          C52   1.386       .  A
C45          C53   1.385       .  A
C45          C56   1.408       .  A
C46          C54   1.387       .  A
C46          C57   1.409       .  A
C47          C48   1.374   1_655  A
C47          H59   1.082       .  S
C48          H60   1.083       .  S
C49          C50   1.376   1_655  A
C49          H61   1.082       .  S
C50          H62   1.082       .  S
C51          C52   1.378   1_545  A
C51          H63   1.082       .  S
C52          H64   1.082       .  S
C53          C54   1.375   1_545  A
C53          H65   1.082       .  S
C54          H66   1.082       .  S
C55         C822   1.478       .  S
C56         C845   1.490       .  S
C57         C886   1.477       .  S
C58         C909   1.490       .  S
O69          C85   1.272       .  A
O69       Zn1139   2.013   1_554  S
C70         C685   1.474       .  S
C70          O86   1.272       .  A
C70          O83   1.275       .  A
O71          C84   1.268       .  A
O71         Cd78   2.047       .  S
O72          C90   1.273       .  A
O72         Cd81   2.064       .  S
O73        C1151   1.274   1_554  A
O73         Cd77   2.072       .  S
O74          C85   1.272       .  A
O74         Cd77   2.057       .  S
Zn75         O86   2.002       .  S
Zn75         O88   2.026       .  S
Zn75       O1133   2.011       .  S
Zn75         O80   1.941       .  S
O76          C87   1.274       .  A
O76         Cd81   2.072       .  S
Cd77         O79   2.062       .  S
Cd77       O1144   1.997   1_554  S
Cd78         O91   2.057       .  S
Cd78       O1146   2.044       .  S
Cd78         O80   1.991       .  S
O79          C89   1.273       .  A
O80         Cd81   2.000       .  S
O80       Cd1141   1.994       .  S
Cd81         O83   2.070       .  S
O82          C89   1.272       .  A
O82       Cd1142   2.050   1_554  S
C84         C973   1.496       .  S
C84          O88   1.276       .  A
C85         C717   1.468       .  S
C87         C854   1.478       .  S
C87        O1137   1.274       .  A
C89         C781   1.461       .  S
C90         C749   1.465       .  S
C90          O91   1.272       .  A
O92         C108   1.276       .  A
O92         Zn98   2.024       .  S
C93         C557   1.483       .  S
C93         O109   1.274       .  A
C93         O106   1.271       .  A
O94         C107   1.276       .  A
O94        Cd101   2.070       .  S
O95         C113   1.272       .  A
O95        Cd104   2.052       .  S
O96         C110   1.272       .  A
O96        Cd100   2.063       .  S
O97         C108   1.270       .  A
O97        Cd100   2.045       .  S
Zn98        O111   2.028       .  S
Zn98       O1173   2.008       .  S
Zn98        O103   1.939       .  S
O99        C1174   1.271   1_554  A
O99        Cd104   2.053       .  S
Cd100       O102   2.060       .  S
Cd100       O103   1.989       .  S
Cd101       O105   2.066       .  S
Cd101      O1178   2.064       .  S
Cd101       O103   1.997       .  S
O102        C112   1.273       .  A
O103      Cd1168   1.994       .  S
Cd104       O106   2.059       .  S
Cd104      O1167   1.991   1_554  S
O105        C112   1.273       .  A
C107        C950   1.502       .  S
C107        O111   1.273       .  A
C108        C589   1.484       .  S
O109      Zn1162   2.005   1_554  S
C110        C813   1.476       .  S
C110       O1163   1.273       .  A
C112        C662   1.470       .  S
C113        C621   1.461       .  S
C113        O114   1.272       .  A
O114      Cd1165   2.056   1_554  S
O115        C131   1.275       .  A
O115      Zn1185   2.006   1_554  S
C116        C429   1.498       .  S
C116        O132   1.276       .  A
C116        O129   1.272       .  A
O117        C130   1.273       .  A
O117       Cd124   2.065       .  S
O118        C136   1.273       .  A
O118       Cd127   2.055       .  S
O119       C1197   1.275       .  A
O119       Cd123   2.077   1_556  S
O120        C131   1.271       .  A
O120       Cd123   2.058       .  S
Zn121       O132   2.015       .  S
Zn121       O134   2.017       .  S
Zn121      O1179   2.021       .  S
Zn121       O126   1.933       .  S
O122        C133   1.274       .  A
O122       Cd127   2.074       .  S
Cd123       O125   2.063       .  S
Cd123      O1190   1.992   1_554  S
Cd124       O137   2.054       .  S
Cd124      O1192   2.048       .  S
Cd124       O126   1.998       .  S
O125        C135   1.275       .  A
O126       Cd127   1.994       .  S
O126      Cd1187   1.991       .  S
Cd127       O129   2.067       .  S
O128        C135   1.270       .  A
O128      Cd1188   2.054   1_554  S
C130       C1037   1.496       .  S
C130        O134   1.271       .  A
C131        C461   1.494       .  S
C133        C918   1.475       .  S
C133       O1183   1.274       .  A
C135        C525   1.480       .  S
C136        C493   1.461       .  S
C136        O137   1.272       .  A
O138        C154   1.277       .  A
O138       Zn144   2.028       .  S
C139        C301   1.496       .  S
C139        O155   1.271       .  A
C139        O152   1.274       .  A
O140        C153   1.269       .  A
O140       Cd147   2.050       .  S
O141        C159   1.274       .  A
O141       Cd150   2.061       .  S
O142        C156   1.275       .  A
O142       Cd146   2.074       .  S
O143        C154   1.275       .  A
O143       Cd146   2.085       .  S
Zn144       O157   2.026       .  S
Zn144      O1219   2.018       .  S
Zn144       O149   1.937       .  S
O145       C1220   1.273   1_554  A
O145       Cd150   2.059       .  S
Cd146       O148   2.080       .  S
Cd146       O149   2.004       .  S
Cd147       O151   2.040       .  S
Cd147      O1224   2.063       .  S
Cd147       O149   1.992       .  S
O148        C158   1.275       .  A
O149      Cd1214   1.993       .  S
Cd150       O152   2.063       .  S
Cd150      O1213   1.991   1_554  S
O151        C158   1.272       .  A
C153       C1014   1.496       .  S
C153        O157   1.276       .  A
C154        C342   1.499       .  S
O155      Zn1208   2.014   1_554  S
C156        C877   1.470       .  S
C156       O1209   1.273       .  A
C158        C406   1.482       .  S
C159        C374   1.480       .  S
C159        O160   1.272       .  A
O160      Cd1211   2.068   1_554  S
N161        C166   1.351   1_655  A
N161        C165   1.353       .  A
N161        H193   1.041       .  S
N162        C169   1.347       .  A
N162        C170   1.347       .  A
N163        C168   1.350       .  A
N163        C167   1.351   1_455  A
N163        H194   1.041       .  S
N164        C171   1.347       .  A
N164        C172   1.348       .  A
C165        C173   1.387       .  A
C165        C181   1.413       .  A
C166        C182   1.413       .  A
C166        C174   1.388       .  A
C167        C175   1.386       .  A
C167        C184   1.407       .  A
C168        C183   1.412       .  A
C168        C176   1.389       .  A
C169        C181   1.406       .  A
C169        C177   1.386       .  A
C170        C184   1.405       .  A
C170        C178   1.386       .  A
C171        C179   1.386       .  A
C171        C182   1.407       .  A
C172        C180   1.386       .  A
C172        C183   1.407       .  A
C173        C174   1.374   1_655  A
C173        H185   1.082       .  S
C174        H186   1.082       .  S
C175        C176   1.372   1_655  A
C175        H187   1.082       .  S
C176        H188   1.082       .  S
C177        C178   1.373       .  A
C177        H189   1.082       .  S
C178        H190   1.082       .  S
C179        C180   1.374       .  A
C179        H191   1.083       .  S
C180        H192   1.082       .  S
C181        C653   1.480       .  S
C182        C758   1.480       .  S
C183        C790   1.480       .  S
C184        C630   1.477       .  S
N195        C200   1.348   1_655  A
N195        C199   1.349       .  A
N195        H227   1.037   1_655  S
N196        C203   1.348       .  A
N196        C204   1.348       .  A
N197        C202   1.351   1_655  A
N197        C201   1.350       .  A
N197        H228   1.037       .  S
N198        C205   1.351       .  A
N198        C206   1.350       .  A
C199        C207   1.387       .  A
C199        C215   1.408       .  A
C200        C216   1.408       .  A
C200        C208   1.387       .  A
C201        C209   1.387       .  A
C201        C218   1.412       .  A
C202        C217   1.412       .  A
C202        C210   1.387       .  A
C203        C215   1.409       .  A
C203        C211   1.387       .  A
C204        C218   1.408       .  A
C204        C212   1.387       .  A
C205        C213   1.386       .  A
C205        C216   1.410       .  A
C206        C214   1.386       .  A
C206        C217   1.411       .  A
C207        C208   1.376   1_655  A
C207        H219   1.082       .  S
C208        H220   1.083       .  S
C209        C210   1.377   1_655  A
C209        H221   1.082       .  S
C210        H222   1.082       .  S
C211        C212   1.372       .  A
C211        H223   1.082       .  S
C212        H224   1.082       .  S
C213        C214   1.374       .  A
C213        H225   1.082       .  S
C214        H226   1.082       .  S
C215        C502   1.476       .  S
C216        C397   1.480       .  S
C217        C365   1.486       .  S
C218        C534   1.479       .  S
N229        C234   1.353       .  A
N229        C233   1.354       .  A
N229        H261   1.039       .  S
N230        C237   1.349       .  A
N230        C238   1.349       .  A
N231        C236   1.355       .  A
N231        C235   1.355       .  A
N231        H262   1.037       .  S
N232        C239   1.352       .  A
N232        C240   1.352       .  A
C233        C241   1.386       .  A
C233        C249   1.412       .  A
C234        C250   1.415       .  A
C234        C242   1.389       .  A
C235        C243   1.388       .  A
C235        C252   1.417       .  A
C236        C251   1.417       .  A
C236        C244   1.387       .  A
C237        C249   1.409       .  A
C237        C245   1.387       .  A
C238        C252   1.409       .  A
C238        C246   1.386       .  A
C239        C247   1.385       .  A
C239        C250   1.413       .  A
C240        C248   1.387       .  A
C240        C251   1.416       .  A
C241        C242   1.369       .  A
C241        H253   1.082       .  S
C242        H254   1.082       .  S
C243        C244   1.371       .  A
C243        H255   1.083       .  S
C244        H256   1.082       .  S
C245        C246   1.371       .  A
C245        H257   1.083       .  S
C246        H258   1.082       .  S
C247        C248   1.373       .  A
C247        H259   1.082       .  S
C248        H260   1.082       .  S
C249        C470   1.483       .  S
C250        C310   1.487       .  S
C251        C333   1.490       .  S
C252        C438   1.485       .  S
N263        C268   1.351       .  A
N263        C267   1.352       .  A
N263        H295   1.037       .  S
N264        C271   1.351       .  A
N264        C272   1.350       .  A
N265        C270   1.351       .  A
N265        C269   1.348       .  A
N265        H296   1.037       .  S
N266        C273   1.348       .  A
N266        C274   1.350       .  A
C267        C275   1.387       .  A
C267        C283   1.414       .  A
C268        C284   1.414       .  A
C268        C276   1.387       .  A
C269        C277   1.387       .  A
C269        C286   1.409       .  A
C270        C285   1.411       .  A
C270        C278   1.387       .  A
C271        C283   1.412       .  A
C271        C279   1.386       .  A
C272        C286   1.412       .  A
C272        C280   1.386       .  A
C273        C281   1.387       .  A
C273        C284   1.408       .  A
C274        C282   1.386       .  A
C274        C285   1.409       .  A
C275        C276   1.378       .  A
C275        H287   1.082       .  S
C276        H288   1.082       .  S
C277        C278   1.377       .  A
C277        H289   1.082       .  S
C278        H290   1.082       .  S
C279        C280   1.373       .  A
C279        H291   1.082       .  S
C280        H292   1.082       .  S
C281        C282   1.371       .  A
C281        H293   1.082       .  S
C282        H294   1.082       .  S
C283        C598   1.484       .  S
C284        C694   1.481       .  S
C285        C726   1.483       .  S
C286        C566   1.480       .  S
C297        C298   1.399       .  A
C297        C302   1.409       .  A
C297        H307   1.083       .  S
C298        C299   1.411       .  A
C298        C303   1.480       .  S
C299        C300   1.404       .  A
C299        C304   1.520       .  S
C300        C301   1.411       .  A
C300        H305   1.082       .  S
C301        C302   1.429       .  A
C302        C306   1.522       .  S
C303        C308   1.415       .  A
C303        C312   1.402       .  A
C304        F320   1.382       .  S
C304        F321   1.383       .  S
C304        F322   1.384       .  S
C306        F317   1.384       .  S
C306        F318   1.385       .  S
C306        F319   1.383       .  S
C308        C309   1.404       .  A
C308        C313   1.518       .  S
C309        C310   1.403       .  A
C309        H314   1.084       .  S
C310        C311   1.415       .  A
C311        C312   1.405       .  A
C311        C315   1.517       .  S
C312        H316   1.083       .  S
C313        F326   1.385       .  S
C313        F327   1.383       .  S
C313        F328   1.382       .  S
C315        F323   1.385       .  S
C315        F324   1.382       .  S
C315        F325   1.382       .  S
C329        C330   1.405       .  A
C329        C334   1.410       .  A
C329        H339   1.083       .  S
C330        C331   1.417       .  A
C330        C335   1.486       .  S
C331        C332   1.404       .  A
C331        C336   1.520       .  S
C332        C333   1.401       .  A
C332        H337   1.083       .  S
C333        C334   1.414       .  A
C334        C338   1.516       .  S
C335        C340   1.412       .  A
C335        C344   1.399       .  A
C336        F352   1.382       .  S
C336        F353   1.382       .  S
C336        F354   1.385       .  S
C338        F349   1.383       .  S
C338        F350   1.384       .  S
C338        F351   1.382       .  S
C340        C341   1.408       .  A
C340        C345   1.519       .  S
C341        C342   1.411       .  A
C341        H346   1.083       .  S
C342        C343   1.427       .  A
C343        C344   1.409       .  A
C343        C347   1.519       .  S
C344        H348   1.083       .  S
C345        F358   1.385       .  S
C345        F359   1.382       .  S
C345        F360   1.382       .  S
C347        F355   1.383       .  S
C347        F356   1.381       .  S
C347        F357   1.385       .  S
C361        C362   1.402       .  A
C361        C366   1.407       .  A
C361        H371   1.083       .  S
C362        C363   1.414       .  A
C362        C367   1.478       .  S
C363        C364   1.401       .  A
C363        C368   1.520       .  S
C364        C365   1.403       .  A
C364        H369   1.083       .  S
C365        C366   1.416       .  A
C366        C370   1.519       .  S
C367        C372   1.413       .  A
C367        C376   1.401       .  A
C368        F384   1.382       .  S
C368        F385   1.382       .  S
C368        F386   1.385       .  S
C370        F381   1.381       .  S
C370        F382   1.385       .  S
C370        F383   1.383       .  S
C372        C373   1.403       .  A
C372        C377   1.521       .  S
C373        C374   1.405       .  A
C373        H378   1.083       .  S
C374        C375   1.421       .  A
C375        C376   1.408       .  A
C375        C379   1.520       .  S
C376        H380   1.083       .  S
C377        F390   1.384       .  S
C377        F391   1.382       .  S
C377        F392   1.382       .  S
C379        F387   1.383   1_554  S
C379        F388   1.383   1_554  S
C379        F389   1.385       .  S
C393        C394   1.403       .  A
C393        C398   1.404       .  A
C393        H403   1.085       .  S
C394        C395   1.413       .  A
C394        C399   1.474       .  S
C395        C396   1.399       .  A
C395        C400   1.521       .  S
C396        C397   1.404       .  A
C396        H401   1.084       .  S
C397        C398   1.417       .  A
C398        C402   1.518       .  S
C399        C404   1.412       .  A
C399        C408   1.400       .  A
C400        F416   1.382       .  S
C400        F417   1.382       .  S
C400        F418   1.385       .  S
C402        F413   1.384       .  S
C402        F414   1.383       .  S
C402        F415   1.381       .  S
C404        C405   1.402       .  A
C404        C409   1.521       .  S
C405        C406   1.408       .  A
C405        H410   1.083       .  S
C406        C407   1.420       .  A
C407        C408   1.404       .  A
C407        C411   1.518       .  S
C408        H412   1.083       .  S
C409        F422   1.385       .  S
C409        F423   1.382       .  S
C409        F424   1.382       .  S
C411        F419   1.382       .  S
C411        F420   1.383       .  S
C411        F421   1.385       .  S
C425        C426   1.397       .  A
C425        C430   1.407       .  A
C425        H435   1.083       .  S
C426        C427   1.411       .  A
C426        C431   1.479       .  S
C427        C428   1.404       .  A
C427        C432   1.521       .  S
C428        C429   1.411       .  A
C428        H433   1.082       .  S
C429        C430   1.429       .  A
C430        C434   1.521       .  S
C431        C436   1.416       .  A
C431        C440   1.400       .  A
C432        F448   1.382       .  S
C432        F449   1.382       .  S
C432        F450   1.385       .  S
C434        F445   1.385       .  S
C434        F446   1.381       .  S
C434        F447   1.383       .  S
C436        C437   1.407       .  A
C436        C441   1.518       .  S
C437        C438   1.402       .  A
C437        H442   1.083       .  S
C438        C439   1.417       .  A
C439        C440   1.402       .  A
C439        C443   1.520       .  S
C440        H444   1.083       .  S
C441        F454   1.384       .  S
C441        F455   1.382       .  S
C441        F456   1.382       .  S
C443        F451   1.385       .  S
C443        F452   1.382       .  S
C443        F453   1.382       .  S
C457        C458   1.397       .  A
C457        C462   1.406       .  A
C457        H467   1.083       .  S
C458        C459   1.410       .  A
C458        C463   1.476       .  S
C459        C460   1.403       .  A
C459        C464   1.520       .  S
C460        C461   1.412       .  A
C460        H465   1.082       .  S
C461        C462   1.429       .  A
C462        C466   1.523       .  S
C463        C468   1.416       .  A
C463        C472   1.402       .  A
C464        F480   1.382       .  S
C464        F481   1.382       .  S
C464        F482   1.385       .  S
C466        F477   1.385       .  S
C466        F478   1.383       .  S
C466        F479   1.384       .  S
C468        C469   1.402       .  A
C468        C473   1.520       .  S
C469        C470   1.401       .  A
C469        H474   1.083       .  S
C470        C471   1.412       .  A
C471        C472   1.405       .  A
C471        C475   1.516       .  S
C472        H476   1.083       .  S
C473        F486   1.385       .  S
C473        F487   1.382       .  S
C473        F488   1.382       .  S
C475        F483   1.383       .  S
C475        F484   1.383       .  S
C475        F485   1.385       .  S
C489        C490   1.401       .  A
C489        C494   1.401       .  A
C489        H499   1.083       .  S
C490        C491   1.416       .  A
C490        C495   1.473       .  S
C491        C492   1.404       .  A
C491        C496   1.521       .  S
C492        C493   1.400       .  A
C492        H497   1.084       .  S
C493        C494   1.411       .  A
C494        C498   1.517       .  S
C495        C500   1.415       .  A
C495        C504   1.400       .  A
C496        F512   1.382       .  S
C496        F513   1.382       .  S
C496        F514   1.385       .  S
C498        F509   1.384       .  S
C498        F510   1.380       .  S
C498        F511   1.383       .  S
C500        C501   1.404       .  A
C500        C505   1.518       .  S
C501        C502   1.400       .  A
C501        H506   1.083       .  S
C502        C503   1.415       .  A
C503        C504   1.400       .  A
C503        C507   1.521       .  S
C504        H508   1.083       .  S
C505        F518   1.384       .  S
C505        F519   1.382       .  S
C505        F520   1.382       .  S
C507        F515   1.382       .  S
C507        F516   1.383       .  S
C507        F517   1.385       .  S
C521        C522   1.400       .  A
C521        C526   1.406       .  A
C521        H531   1.083       .  S
C522        C523   1.413       .  A
C522        C527   1.475       .  S
C523        C524   1.401       .  A
C523        C528   1.521       .  S
C524        C525   1.405       .  A
C524        H529   1.083       .  S
C525        C526   1.423       .  A
C526        C530   1.521       .  S
C527        C532   1.415       .  A
C527        C536   1.400       .  A
C528        F544   1.382       .  S
C528        F545   1.382       .  S
C528        F546   1.384       .  S
C530        F541   1.383       .  S
C530        F542   1.385       .  S
C530        F543   1.384   1_554  S
C532        C533   1.405       .  A
C532        C537   1.518       .  S
C533        C534   1.401       .  A
C533        H538   1.083       .  S
C534        C535   1.415       .  A
C535        C536   1.400       .  A
C535        C539   1.520       .  S
C536        H540   1.083       .  S
C537        F550   1.385       .  S
C537        F551   1.382       .  S
C537        F552   1.382       .  S
C539        F547   1.381       .  S
C539        F548   1.383       .  S
C539        F549   1.385       .  S
C553        C554   1.399       .  A
C553        C558   1.406       .  A
C553        H563   1.083       .  S
C554        C555   1.412       .  A
C554        C559   1.475       .  S
C555        C556   1.401       .  A
C555        C560   1.521       .  S
C556        C557   1.407       .  A
C556        H561   1.083       .  S
C557        C558   1.423       .  A
C558        C562   1.520       .  S
C559        C564   1.415       .  A
C559        C568   1.399       .  A
C560        F576   1.382       .  S
C560        F577   1.382       .  S
C560        F578   1.385       .  S
C562        F573   1.385       .  S
C562        F574   1.382       .  S
C562        F575   1.383       .  S
C564        C565   1.405       .  A
C564        C569   1.518       .  S
C565        C566   1.401       .  A
C565        H570   1.083       .  S
C566        C567   1.417       .  A
C567        C568   1.401       .  A
C567        C571   1.521       .  S
C568        H572   1.083       .  S
C569        F582   1.384       .  S
C569        F583   1.382       .  S
C569        F584   1.382       .  S
C571        F579   1.385       .  S
C571        F580   1.383       .  S
C571        F581   1.382       .  S
C585        C586   1.397       .  A
C585        C590   1.404       .  A
C585        H595   1.083       .  S
C586        C587   1.412       .  A
C586        C591   1.477       .  S
C587        C588   1.405       .  A
C587        C592   1.518       .  S
C588        C589   1.407       .  A
C588        H593   1.083       .  S
C589        C590   1.425       .  A
C590        C594   1.522       .  S
C591        C596   1.415       .  A
C591        C600   1.400       .  A
C592        F608   1.383       .  S
C592        F609   1.382       .  S
C592        F610   1.385       .  S
C594        F605   1.385       .  S
C594        F606   1.383       .  S
C594        F607   1.384       .  S
C596        C597   1.403       .  A
C596        C601   1.521       .  S
C597        C598   1.403       .  A
C597        H602   1.083       .  S
C598        C599   1.419       .  A
C599        C600   1.405       .  A
C599        C603   1.517       .  S
C600        H604   1.085       .  S
C601        F614   1.384       .  S
C601        F615   1.383       .  S
C601        F616   1.382       .  S
C603        F611   1.384       .  S
C603        F612   1.381       .  S
C603        F613   1.383       .  S
C617        C618   1.401       .  A
C617        C622   1.402       .  A
C617        H627   1.083       .  S
C618        C619   1.416       .  A
C618        C623   1.472       .  S
C619        C620   1.403       .  A
C619        C624   1.521       .  S
C620        C621   1.400       .  A
C620        H625   1.084       .  S
C621        C622   1.411       .  A
C622        C626   1.517       .  S
C623        C628   1.414       .  A
C623        C632   1.400       .  A
C624        F640   1.382       .  S
C624        F641   1.382       .  S
C624        F642   1.384       .  S
C626        F637   1.384       .  S
C626        F638   1.382       .  S
C626        F639   1.383       .  S
C628        C629   1.404       .  A
C628        C633   1.519       .  S
C629        C630   1.401       .  A
C629        H634   1.083       .  S
C630        C631   1.416       .  A
C631        C632   1.400       .  A
C631        C635   1.521       .  S
C632        H636   1.083       .  S
C633        F646   1.384       .  S
C633        F647   1.382       .  S
C633        F648   1.382       .  S
C635        F643   1.381       .  S
C635        F644   1.382       .  S
C635        F645   1.384       .  S
C649        C650   1.401       .  A
C649        C654   1.400       .  A
C649        H659   1.085       .  S
C650        C651   1.416       .  A
C650        C655   1.480       .  S
C651        C652   1.405       .  A
C651        C656   1.518       .  S
C652        C653   1.401       .  A
C652        H657   1.083       .  S
C653        C654   1.418       .  A
C654        C658   1.520       .  S
C655        C660   1.417       .  A
C655        C664   1.402       .  A
C656        F672   1.381       .  S
C656        F673   1.382       .  S
C656        F674   1.385       .  S
C658        F669   1.384       .  S
C658        F670   1.383       .  S
C658        F671   1.381       .  S
C660        C661   1.405       .  A
C660        C665   1.520       .  S
C661        C662   1.402       .  A
C661        H666   1.083       .  S
C662        C663   1.415       .  A
C663        C664   1.404       .  A
C663        C667   1.519       .  S
C664        H668   1.083       .  S
C665        F678   1.385       .  S
C665        F679   1.381       .  S
C665        F680   1.382       .  S
C667        F675   1.383       .  S
C667        F676   1.382       .  S
C667        F677   1.385       .  S
C681        C682   1.398       .  A
C681        C686   1.402       .  A
C681        H691   1.084       .  S
C682        C683   1.414       .  A
C682        C687   1.475       .  S
C683        C684   1.406       .  A
C683        C688   1.519       .  S
C684        C685   1.405       .  A
C684        H689   1.083       .  S
C685        C686   1.419       .  A
C686        C690   1.520       .  S
C687        C692   1.416       .  A
C687        C696   1.401       .  A
C688        F704   1.382       .  S
C688        F705   1.382       .  S
C688        F706   1.385       .  S
C690        F701   1.385       .  S
C690        F702   1.383       .  S
C690        F703   1.382       .  S
C692        C693   1.401       .  A
C692        C697   1.520       .  S
C693        C694   1.401       .  A
C693        H698   1.083       .  S
C694        C695   1.416       .  A
C695        C696   1.405       .  A
C695        C699   1.519       .  S
C696        H700   1.083       .  S
C697        F710   1.385       .  S
C697        F711   1.382       .  S
C697        F712   1.382       .  S
C699        F707   1.384       .  S
C699        F708   1.383       .  S
C699        F709   1.381       .  S
C713        C714   1.400       .  A
C713        C718   1.401       .  A
C713        H723   1.083       .  S
C714        C715   1.418       .  A
C714        C719   1.480       .  S
C715        C716   1.406       .  A
C715        C720   1.518       .  S
C716        C717   1.399       .  A
C716        H721   1.083       .  S
C717        C718   1.413       .  A
C718        C722   1.514       .  S
C719        C724   1.417       .  A
C719        C728   1.403       .  A
C720        F736   1.382       .  S
C720        F737   1.383       .  S
C720        F738   1.384       .  S
C722        F733   1.385       .  S
C722        F734   1.381       .  S
C722        F735   1.385       .  S
C724        C725   1.402       .  A
C724        C729   1.520       .  S
C725        C726   1.401       .  A
C725        H730   1.084       .  S
C726        C727   1.414       .  A
C727        C728   1.405       .  A
C727        C731   1.517       .  S
C728        H732   1.083       .  S
C729        F742   1.385       .  S
C729        F743   1.382       .  S
C729        F744   1.383       .  S
C731        F739   1.383       .  S
C731        F740   1.385       .  S
C731        F741   1.381       .  S
C745        C746   1.401       .  A
C745        C750   1.402       .  A
C745        H755   1.083       .  S
C746        C747   1.415       .  A
C746        C751   1.476       .  S
C747        C748   1.405       .  A
C747        C752   1.518       .  S
C748        C749   1.401       .  A
C748        H753   1.083       .  S
C749        C750   1.413       .  A
C750        C754   1.518       .  S
C751        C756   1.416       .  A
C751        C760   1.403       .  A
C752        F768   1.382       .  S
C752        F769   1.383       .  S
C752        F770   1.384       .  S
C754        F765   1.383       .  S
C754        F766   1.385       .  S
C754        F767   1.383       .  S
C756        C757   1.400       .  A
C756        C761   1.521       .  S
C757        C758   1.400       .  A
C757        H762   1.084       .  S
C758        C759   1.412       .  A
C759        C760   1.406       .  A
C759        C763   1.516       .  S
C760        H764   1.083       .  S
C761        F774   1.384       .  S
C761        F775   1.382       .  S
C761        F776   1.383       .  S
C763        F771   1.382       .  S
C763        F772   1.383       .  S
C763        F773   1.384       .  S
C777        C778   1.398       .  A
C777        C782   1.399       .  A
C777        H787   1.083       .  S
C778        C779   1.417       .  A
C778        C783   1.470       .  S
C779        C780   1.404       .  A
C779        C784   1.520       .  S
C780        C781   1.399       .  A
C780        H785   1.083       .  S
C781        C782   1.413       .  A
C782        C786   1.516       .  S
C783        C788   1.413       .  A
C783        C792   1.399       .  A
C784        F800   1.382       .  S
C784        F801   1.382       .  S
C784        F802   1.385       .  S
C786        F797   1.378       .  S
C786        F798   1.384       .  S
C786        F799   1.382       .  S
C788        C789   1.401       .  A
C788        C793   1.520       .  S
C789        C790   1.404       .  A
C789        H794   1.083       .  S
C790        C791   1.417       .  A
C791        C792   1.399       .  A
C791        C795   1.517       .  S
C792        H796   1.085       .  S
C793        F806   1.384       .  S
C793        F807   1.382       .  S
C793        F808   1.382       .  S
C795        F803   1.383       .  S
C795        F804   1.382       .  S
C795        F805   1.383       .  S
C809        C810   1.400       .  A
C809        C814   1.405       .  A
C809        H819   1.083       .  S
C810        C811   1.414       .  A
C810        C815   1.478       .  S
C811        C812   1.405       .  A
C811        C816   1.520       .  S
C812        C813   1.404       .  A
C812        H817   1.083       .  S
C813        C814   1.418       .  A
C814       C1882   1.519       .  S
C815        C820   1.415       .  A
C815        C824   1.401       .  A
C816        F832   1.382       .  S
C816        F833   1.383       .  S
C816        F834   1.384       .  S
C818       C1878   1.518       .  S
C818        F830   1.385       .  S
C818        F831   1.383       .  S
C818       F1893   1.382       .  S
C820        C821   1.402       .  A
C820        C825   1.518       .  S
C821        C822   1.401       .  A
C821        H826   1.083       .  S
C822        C823   1.419       .  A
C823        C824   1.402       .  A
C823       C1891   1.520       .  S
C824       H1892   1.085       .  S
C825        F838   1.385       .  S
C825        F839   1.382       .  S
C825        F840   1.382       .  S
C827       C1887   1.519       .  S
C827        F835   1.383       .  S
C827        F836   1.383       .  S
C827        F837   1.385       .  S
H828       C1888   1.083       .  S
F829       C1882   1.383       .  S
C841        C842   1.400       .  A
C841        C846   1.404       .  A
C841        H851   1.083       .  S
C842        C843   1.416       .  A
C842        C847   1.481       .  S
C843        C844   1.408       .  A
C843        C848   1.520       .  S
C844        C845   1.405       .  A
C844        H849   1.083       .  S
C845        C846   1.418       .  A
C846       C1914   1.520       .  S
C847        C852   1.416       .  A
C847        C856   1.401       .  A
C848        F864   1.382       .  S
C848        F865   1.381       .  S
C848        F866   1.385       .  S
C850       C1910   1.520       .  S
C850        F862   1.384       .  S
C850       F1925   1.381       .  S
C850       F1927   1.383       .  S
C852        C853   1.408       .  A
C852        C857   1.521       .  S
C853        C854   1.404       .  A
C853        H858   1.083       .  S
C854        C855   1.417       .  A
C855        C856   1.406       .  A
C855       C1923   1.519       .  S
C856       H1924   1.083       .  S
C857        F870   1.384       .  S
C857        F871   1.383       .  S
C857        F872   1.381       .  S
C859       C1919   1.518       .  S
C859        F867   1.382       .  S
C859        F868   1.383   1_554  S
C859        F869   1.385       .  S
H860       C1920   1.083       .  S
F861       C1914   1.380       .  S
F863       C1914   1.383       .  S
C873        C874   1.401       .  A
C873        C878   1.405       .  A
C873        H883   1.083       .  S
C874        C875   1.416       .  A
C874        C879   1.477       .  S
C875        C876   1.405       .  A
C875       C1944   1.521       .  S
C876        C877   1.401       .  A
C876       H1945   1.083       .  S
C877        C878   1.415       .  A
C878        C882   1.518       .  S
C879        C884   1.415       .  A
C879        C888   1.401       .  A
C880       C1939   1.521       .  S
C880        F897   1.382   1_556  S
C880        F898   1.384       .  S
C880       F1960   1.382       .  S
H881       C1940   1.083       .  S
C882        F893   1.384       .  S
C882        F894   1.383       .  S
C882        F895   1.383       .  S
C884        C885   1.403       .  A
C884       C1953   1.519       .  S
C885        C886   1.401       .  A
C885        H890   1.083       .  S
C886        C887   1.417       .  A
C887        C888   1.401       .  A
C887        C891   1.520       .  S
C888        H892   1.085       .  S
C889       C1948   1.519       .  S
C889        F902   1.384       .  S
C889        F904   1.382       .  S
C889       F1967   1.383       .  S
C891        F899   1.383       .  S
C891        F900   1.381       .  S
C891        F901   1.383       .  S
F896       C1944   1.382       .  S
F903       C1953   1.382       .  S
C905        C906   1.401       .  A
C905        C910   1.407       .  A
C905        H915   1.085       .  S
C906        C907   1.416       .  A
C906        C911   1.486       .  S
C907        C908   1.407       .  A
C907        C912   1.519       .  S
C908        C909   1.404       .  A
C908        H913   1.083       .  S
C909        C910   1.422       .  A
C910        C914   1.519       .  S
C911        C916   1.416       .  A
C911        C920   1.404       .  A
C912        F928   1.382       .  S
C912       F1993   1.382       .  S
C912       F1994   1.384       .  S
C914        F925   1.383       .  S
C914        F926   1.384       .  S
C914        F927   1.380       .  S
C916        C917   1.407       .  A
C916       C1985   1.518       .  S
C917        C918   1.402       .  A
C917       H1986   1.083       .  S
C918        C919   1.416       .  A
C919        C920   1.408       .  A
C919        C923   1.519       .  S
C920        H924   1.083       .  S
C921       C1980   1.519       .  S
C921        F934   1.385   1_556  S
C921        F935   1.382       .  S
C921        F936   1.382   1_556  S
H922       C1981   1.083       .  S
C923        F931   1.382       .  S
C923        F932   1.384       .  S
C923        F933   1.385       .  S
F929       C1976   1.382       .  S
F930       C1976   1.385       .  S
C937        C938   1.402       .  A
C937       C2006   1.408       .  A
C937       H2011   1.083       .  S
C938        C939   1.417       .  A
C938        C943   1.486       .  S
C939        C940   1.407       .  A
C939        C944   1.519       .  S
C940        C941   1.402       .  A
C940        H945   1.083       .  S
C941       C2006   1.416       .  A
C941       C1088   1.491       .  S
C942       C2001   1.410       .  A
C942       C2005   1.419   1_554  A
C942        C946   1.518       .  S
C943        C948   1.412       .  A
C943       C2016   1.399       .  A
C944        F961   1.383       .  S
C944        F962   1.384       .  S
C944       F2024   1.382       .  S
C946        F958   1.383       .  S
C946        F959   1.385       .  S
C946       F2021   1.381       .  S
H947       C2001   1.083       .  S
C948        C949   1.406       .  A
C948        C953   1.520       .  S
C949        C950   1.412       .  A
C949        H954   1.082       .  S
C950       C2015   1.430       .  A
C951        C952   1.412   1_554  A
C951       C2014   1.424   1_554  A
C951        C955   1.521       .  S
C952       C2007   1.403       .  A
C952        H956   1.083   1_556  S
C953        F966   1.385       .  S
C953        F967   1.382       .  S
C953        F968   1.382       .  S
C955        F963   1.385       .  S
C955        F964   1.384       .  S
C955        F965   1.382       .  S
F957       C2010   1.382       .  S
F960       C2008   1.383       .  S
C969        C970   1.396       .  A
C969        C974   1.406       .  A
C969        H979   1.083       .  S
C970        C971   1.409       .  A
C970        C975   1.474       .  S
C971        C972   1.403       .  A
C971        C976   1.519       .  S
C972        C973   1.411       .  A
C972        H977   1.082       .  S
C973        C974   1.431       .  A
C974        C978   1.522       .  S
C975        C980   1.419       .  A
C975       C2048   1.402       .  A
C976        F993   1.381       .  S
C976        F994   1.384       .  S
C976       F2056   1.383       .  S
C978        F989   1.383       .  S
C978        F991   1.384       .  S
C978       F2054   1.385       .  S
C980        C981   1.401       .  A
C980        C985   1.520       .  S
C981        C982   1.399       .  A
C981        H986   1.085       .  S
C982       C2047   1.413       .  A
C982       C1087   1.481       .  S
C983        C984   1.408       .  A
C983       C2046   1.416   1_554  A
C983        C987   1.518       .  S
C984       C2039   1.403   1_554  A
C984        H988   1.083       .  S
C985        F998   1.383       .  S
C985        F999   1.383       .  S
C985       F1000   1.381       .  S
C987        F995   1.382       .  S
C987        F996   1.383       .  S
C987        F997   1.385       .  S
F990       C2042   1.385       .  S
F992       C2040   1.382       .  S
C1001      C1002   1.402       .  A
C1001      C1006   1.405       .  A
C1001      H1011   1.083       .  S
C1002      C2067   1.417       .  A
C1002      C1007   1.481       .  S
C1003      C1004   1.409       .  A
C1003      C2066   1.417       .  A
C1003      C1008   1.519   1_556  S
C1004      C2069   1.404       .  A
C1004      H1009   1.083   1_556  S
C1005      C1006   1.414       .  A
C1005      C2068   1.402       .  A
C1006      C1010   1.518       .  S
C1007      C1016   1.398       .  A
C1007      C2076   1.412       .  A
C1008      F1025   1.382       .  S
C1008      F1026   1.384       .  S
C1008      F2088   1.383       .  S
C1010      F1021   1.383       .  S
C1010      F1022   1.384       .  S
C1010      F1023   1.382       .  S
C1012      C1013   1.405       .  A
C1012      C2071   1.413       .  A
C1012      C1017   1.519       .  S
C1013      C2078   1.407       .  A
C1013      H1018   1.083       .  S
C1014      C1015   1.430       .  A
C1014      C2077   1.410       .  A
C1015      C1016   1.408       .  A
C1015      C1019   1.523       .  S
C1016      H1020   1.083       .  S
C1017      F1030   1.385       .  S
C1017      F1031   1.383       .  S
C1017      F1032   1.381       .  S
C1019      F1027   1.385       .  S
C1019      F1028   1.384       .  S
C1019      F1029   1.384       .  S
F1024      C2072   1.382       .  S
C1033      C1034   1.398       .  A
C1033      C1038   1.406       .  A
C1033      H1043   1.083       .  S
C1034      C2099   1.412       .  A
C1034      C1039   1.482       .  S
C1035      C1036   1.407       .  A
C1035      C2098   1.415       .  A
C1035      C1040   1.520       .  S
C1036      C2101   1.406       .  A
C1036      H1041   1.083       .  S
C1037      C1038   1.427       .  A
C1037      C2100   1.411       .  A
C1038      C1042   1.522       .  S
C1039      C1048   1.403       .  A
C1039      C2108   1.417       .  A
C1040      F1056   1.383       .  S
C1040      F1057   1.383       .  S
C1040      F1058   1.384       .  S
C1042      F1053   1.384       .  S
C1042      F1054   1.385       .  S
C1042      F1055   1.383       .  S
C1044      C1045   1.407       .  A
C1044      C2103   1.417       .  A
C1044      C1049   1.519   1_556  S
C1045      C2110   1.402       .  A
C1045      H1050   1.083   1_556  S
C1046      C1047   1.414       .  A
C1046      C2109   1.400       .  A
C1047      C1048   1.406       .  A
C1047      C1051   1.518       .  S
C1048      H1052   1.083       .  S
C1049      F1062   1.384       .  S
C1049      F1064   1.383       .  S
C1049      F2127   1.382       .  S
C1051      F1059   1.383       .  S
C1051      F1060   1.383       .  S
C1051      F1061   1.384       .  S
F1063      C2113   1.382       .  S
N1065      C1070   1.353       .  A
N1065      C1069   1.351       .  A
N1065      H1097   1.041       .  S
N1066      C1073   1.352       .  A
N1067      C1072   1.353       .  A
N1067      C1071   1.355       .  A
N1067      H1098   1.022       .  S
N1068      C1076   1.348       .  A
C1069      C1077   1.389       .  A
C1069      C1085   1.414       .  A
C1070      C1086   1.412       .  A
C1070      C1078   1.386       .  A
C1071      C1079   1.388       .  A
C1071      C1088   1.422       .  A
C1072      C1087   1.420       .  A
C1072      C1080   1.388       .  A
C1073      C1085   1.415       .  A
C1073      C1081   1.386       .  A
C1074      C1088   1.418       .  A
C1075      C1086   1.412       .  A
C1076      C1084   1.388       .  A
C1076      C1087   1.413       .  A
C1077      C1078   1.376       .  A
C1077      H1089   1.082       .  S
C1078      H1090   1.082       .  S
C1079      C1080   1.373       .  A
C1079      H1091   1.082       .  S
C1080      H1092   1.083       .  S
C1081      C1082   1.379       .  A
C1081      H1093   1.082       .  S
C1082      H1094   1.082       .  S
C1083      C1084   1.371       .  A
C1083      H1095   1.082       .  S
C1084      H1096   1.082       .  S
C1085      C2110   1.490       .  S
C1086      C2069   1.494       .  S
N1099      C1104   1.353   1_655  A
N1099      C1103   1.349       .  A
N1099      H1131   1.040   1_556  S
N1100      C1107   1.348   1_566  A
N1100      C1108   1.349       .  A
N1101      C1106   1.353       .  A
N1101      C1105   1.356   1_455  A
N1101      H1132   1.038   1_556  S
N1102      C1109   1.351       .  A
N1102      C1110   1.349   1_545  A
C1103      C1111   1.389       .  A
C1103      C1119   1.412       .  A
C1104      C1120   1.410       .  A
C1104      C1112   1.386       .  A
C1105      C1113   1.387       .  A
C1105      C1122   1.419       .  A
C1106      C1121   1.418       .  A
C1106      C1114   1.388       .  A
C1107      C1119   1.408   1_554  A
C1107      C1115   1.386       .  A
C1108      C1122   1.412       .  A
C1108      C1116   1.386   1_556  A
C1109      C1117   1.385   1_556  A
C1109      C1120   1.411       .  A
C1110      C1118   1.387   1_556  A
C1110      C1121   1.412       .  A
C1111      C1112   1.373   1_655  A
C1111      H1123   1.082       .  S
C1112      H1124   1.083       .  S
C1113      C1114   1.377   1_655  A
C1113      H1125   1.082       .  S
C1114      H1126   1.082       .  S
C1115      C1116   1.376   1_545  A
C1115      H1127   1.082       .  S
C1116      H1128   1.082       .  S
C1117      C1118   1.375   1_545  A
C1117      H1129   1.082       .  S
C1118      H1130   1.082       .  S
C1119      C1886   1.478       .  S
C1120      C1909   1.490       .  S
C1121      C1950   1.483       .  S
C1122      C1973   1.493       .  S
O1133      C1149   1.272       .  A
C1134      C1749   1.473       .  S
C1134      O1150   1.272       .  A
C1134      O1147   1.274       .  A
O1135      C1148   1.271       .  A
O1135     Cd1142   2.066       .  S
O1136      C1154   1.273       .  A
O1136     Cd1145   2.058       .  S
O1137     Cd1141   2.071       .  S
O1138      C1149   1.273       .  A
O1138     Cd1141   2.062       .  S
Zn1139     O1150   1.998       .  S
Zn1139     O1152   2.020       .  S
Zn1139     O1144   1.935       .  S
O1140      C1151   1.274       .  A
O1140     Cd1145   2.072       .  S
Cd1141     O1143   2.072       .  S
Cd1142     O1155   2.056       .  S
Cd1142     O1144   1.996       .  S
O1143      C1153   1.274       .  A
O1144     Cd1145   1.998       .  S
Cd1145     O1147   2.068       .  S
O1146      C1153   1.270       .  A
C1148      C2037   1.487       .  S
C1148      O1152   1.275       .  A
C1149      C1781   1.472       .  S
C1151      C1918   1.475       .  S
C1153      C1845   1.462       .  S
C1154      C1813   1.462       .  S
C1154      O1155   1.272       .  A
O1156      C1172   1.275       .  A
O1156     Zn1162   2.014       .  S
C1157      C1621   1.482       .  S
C1157      O1173   1.275       .  A
C1157      O1170   1.270       .  A
O1158      C1171   1.276       .  A
O1158     Cd1165   2.074       .  S
O1159      C1177   1.272       .  A
O1159     Cd1168   2.052       .  S
O1160      C1174   1.273       .  A
O1160     Cd1164   2.074       .  S
O1161      C1172   1.272       .  A
O1161     Cd1164   2.061       .  S
Zn1162     O1175   2.029       .  S
Zn1162     O1167   1.936       .  S
O1163     Cd1168   2.065       .  S
Cd1164     O1166   2.067       .  S
Cd1164     O1167   1.994       .  S
Cd1165     O1169   2.060       .  S
Cd1165     O1167   1.995       .  S
O1166      C1176   1.275       .  A
Cd1168     O1170   2.052       .  S
O1169      C1176   1.272       .  A
C1171      C2014   1.493       .  S
C1171      O1175   1.273       .  A
C1172      C1653   1.485       .  S
C1174      C1877   1.470       .  S
C1176      C1726   1.471       .  S
C1177      C1685   1.461       .  S
C1177      O1178   1.273       .  A
O1179      C1195   1.276       .  A
C1180      C1493   1.492       .  S
C1180      O1196   1.274       .  A
C1180      O1193   1.273       .  A
O1181      C1194   1.273       .  A
O1181     Cd1188   2.068       .  S
O1182      C1200   1.273       .  A
O1182     Cd1191   2.060       .  S
O1183     Cd1187   2.070       .  S
O1184      C1195   1.270       .  A
O1184     Cd1187   2.052       .  S
Zn1185     O1196   2.002       .  S
Zn1185     O1198   2.006       .  S
Zn1185     O1190   1.929       .  S
O1186      C1197   1.275       .  A
O1186     Cd1191   2.078       .  S
Cd1187     O1189   2.063       .  S
Cd1188     O1201   2.040       .  S
Cd1188     O1190   1.998       .  S
O1189      C1199   1.275       .  A
O1190     Cd1191   1.998       .  S
Cd1191     O1193   2.072       .  S
O1192      C1199   1.270       .  A
C1194      C2101   1.484       .  S
C1194      O1198   1.270       .  A
C1195      C1525   1.493       .  S
C1197      C1982   1.478       .  S
C1199      C1589   1.478       .  S
C1200      C1557   1.462       .  S
C1200      O1201   1.271       .  A
O1202      C1218   1.275       .  A
O1202     Zn1208   2.009       .  S
C1203      C1365   1.498       .  S
C1203      O1219   1.272       .  A
C1203      O1216   1.275       .  A
O1204      C1217   1.272       .  A
O1204     Cd1211   2.062       .  S
O1205      C1223   1.275       .  A
O1205     Cd1214   2.067       .  S
O1206      C1220   1.275       .  A
O1206     Cd1210   2.074       .  S
O1207      C1218   1.275       .  A
O1207     Cd1210   2.086       .  S
Zn1208     O1221   2.019       .  S
Zn1208     O1213   1.933       .  S
O1209     Cd1214   2.062       .  S
Cd1210     O1212   2.078       .  S
Cd1210     O1213   2.003       .  S
Cd1211     O1215   2.046       .  S
Cd1211     O1213   1.993       .  S
O1212      C1222   1.275       .  A
Cd1214     O1216   2.063       .  S
O1215      C1222   1.273       .  A
C1217      C2078   1.488       .  S
C1217      O1221   1.275       .  A
C1218      C1406   1.495       .  S
C1220      C1941   1.468       .  S
C1222      C1470   1.482       .  S
C1223      C1438   1.484       .  S
C1223      O1224   1.271       .  A
N1225      C1230   1.353   1_655  A
N1225      C1229   1.354       .  A
N1225      H1257   1.040       .  S
N1226      C1233   1.349       .  A
N1226      C1234   1.348       .  A
N1227      C1232   1.352       .  A
N1227      C1231   1.351   1_455  A
N1227      H1258   1.040       .  S
N1228      C1235   1.346       .  A
N1228      C1236   1.349       .  A
C1229      C1237   1.387       .  A
C1229      C1245   1.414       .  A
C1230      C1246   1.415       .  A
C1230      C1238   1.388       .  A
C1231      C1239   1.387       .  A
C1231      C1248   1.410       .  A
C1232      C1247   1.412       .  A
C1232      C1240   1.388       .  A
C1233      C1245   1.408       .  A
C1233      C1241   1.386       .  A
C1234      C1248   1.408       .  A
C1234      C1242   1.386       .  A
C1235      C1243   1.387       .  A
C1235      C1246   1.407       .  A
C1236      C1244   1.385       .  A
C1236      C1247   1.406       .  A
C1237      C1238   1.373   1_655  A
C1237      H1249   1.082       .  S
C1238      H1250   1.082       .  S
C1239      C1240   1.372   1_655  A
C1239      H1251   1.082       .  S
C1240      H1252   1.083       .  S
C1241      C1242   1.374       .  A
C1241      H1253   1.082       .  S
C1242      H1254   1.082       .  S
C1243      C1244   1.372       .  A
C1243      H1255   1.083       .  S
C1244      H1256   1.082       .  S
C1245      C1717   1.484       .  S
C1246      C1822   1.479       .  S
C1247      C1854   1.481       .  S
C1248      C1694   1.479       .  S
N1259      C1264   1.348   1_655  A
N1259      C1263   1.347       .  A
N1259      H1291   1.038       .  S
N1260      C1267   1.346       .  A
N1260      C1268   1.347       .  A
N1261      C1266   1.349   1_655  A
N1261      C1265   1.350       .  A
N1261      H1292   1.039       .  S
N1262      C1269   1.349       .  A
N1262      C1270   1.348       .  A
C1263      C1271   1.387       .  A
C1263      C1279   1.406       .  A
C1264      C1280   1.407       .  A
C1264      C1272   1.386       .  A
C1265      C1273   1.386       .  A
C1265      C1282   1.410       .  A
C1266      C1281   1.411       .  A
C1266      C1274   1.387       .  A
C1267      C1279   1.408       .  A
C1267      C1275   1.387       .  A
C1268      C1282   1.406       .  A
C1268      C1276   1.386       .  A
C1269      C1277   1.386       .  A
C1269      C1280   1.408       .  A
C1270      C1278   1.386       .  A
C1270      C1281   1.407       .  A
C1271      C1272   1.377   1_655  A
C1271      H1283   1.082       .  S
C1272      H1284   1.082       .  S
C1273      C1274   1.377   1_655  A
C1273      H1285   1.082       .  S
C1274      H1286   1.082       .  S
C1275      C1276   1.374       .  A
C1275      H1287   1.082       .  S
C1276      H1288   1.083       .  S
C1277      C1278   1.374       .  A
C1277      H1289   1.082       .  S
C1278      H1290   1.082       .  S
C1279      C1566   1.472       .  S
C1280      C1461   1.479       .  S
C1281      C1429   1.481       .  S
C1282      C1598   1.478       .  S
N1293      C1298   1.353       .  A
N1293      C1297   1.355       .  A
N1293      H1325   1.039       .  S
N1294      C1301   1.350       .  A
N1294      C1302   1.349       .  A
N1295      C1300   1.354       .  A
N1295      C1299   1.353       .  A
N1295      H1326   1.036       .  S
N1296      C1303   1.352       .  A
N1296      C1304   1.353       .  A
C1297      C1305   1.386       .  A
C1297      C1313   1.413       .  A
C1298      C1314   1.417       .  A
C1298      C1306   1.389       .  A
C1299      C1307   1.388       .  A
C1299      C1316   1.416       .  A
C1300      C1315   1.417       .  A
C1300      C1308   1.388       .  A
C1301      C1313   1.409       .  A
C1301      C1309   1.386       .  A
C1302      C1316   1.410       .  A
C1302      C1310   1.386       .  A
C1303      C1311   1.386       .  A
C1303      C1314   1.414       .  A
C1304      C1312   1.387       .  A
C1304      C1315   1.417       .  A
C1305      C1306   1.369       .  A
C1305      H1317   1.082       .  S
C1306      H1318   1.082       .  S
C1307      C1308   1.370       .  A
C1307      H1319   1.083       .  S
C1308      H1320   1.082       .  S
C1309      C1310   1.370       .  A
C1309      H1321   1.082       .  S
C1310      H1322   1.082       .  S
C1311      C1312   1.372       .  A
C1311      H1323   1.082       .  S
C1312      H1324   1.082       .  S
C1313      C1534   1.485       .  S
C1314      C1374   1.486       .  S
C1315      C1397   1.490       .  S
C1316      C1502   1.482       .  S
N1327      C1332   1.350       .  A
N1327      C1331   1.351       .  A
N1327      H1359   1.037       .  S
N1328      C1335   1.349       .  A
N1328      C1336   1.350       .  A
N1329      C1334   1.349       .  A
N1329      C1333   1.347       .  A
N1329      H1360   1.038       .  S
N1330      C1337   1.347       .  A
N1330      C1338   1.348       .  A
C1331      C1339   1.387       .  A
C1331      C1347   1.411       .  A
C1332      C1348   1.413       .  A
C1332      C1340   1.387       .  A
C1333      C1341   1.387       .  A
C1333      C1350   1.407       .  A
C1334      C1349   1.409       .  A
C1334      C1342   1.387       .  A
C1335      C1347   1.411       .  A
C1335      C1343   1.387       .  A
C1336      C1350   1.409       .  A
C1336      C1344   1.386       .  A
C1337      C1345   1.387       .  A
C1337      C1348   1.407       .  A
C1338      C1346   1.386       .  A
C1338      C1349   1.408       .  A
C1339      C1340   1.376       .  A
C1339      H1351   1.082       .  S
C1340      H1352   1.082       .  S
C1341      C1342   1.378       .  A
C1341      H1353   1.082       .  S
C1342      H1354   1.082       .  S
C1343      C1344   1.373       .  A
C1343      H1355   1.082       .  S
C1344      H1356   1.082       .  S
C1345      C1346   1.373       .  A
C1345      H1357   1.082       .  S
C1346      H1358   1.082       .  S
C1347      C1662   1.482       .  S
C1348      C1758   1.479       .  S
C1349      C1790   1.476       .  S
C1350      C1630   1.478       .  S
C1361      C1362   1.399       .  A
C1361      C1366   1.409       .  A
C1361      H1371   1.083       .  S
C1362      C1363   1.410       .  A
C1362      C1367   1.480       .  S
C1363      C1364   1.404       .  A
C1363      C1368   1.521       .  S
C1364      C1365   1.412       .  A
C1364      H1369   1.082       .  S
C1365      C1366   1.429       .  A
C1366      C1370   1.522       .  S
C1367      C1372   1.414       .  A
C1367      C1376   1.403       .  A
C1368      F1384   1.382       .  S
C1368      F1385   1.382       .  S
C1368      F1386   1.384       .  S
C1370      F1381   1.384       .  S
C1370      F1382   1.385       .  S
C1370      F1383   1.383       .  S
C1372      C1373   1.403       .  A
C1372      C1377   1.519       .  S
C1373      C1374   1.402       .  A
C1373      H1378   1.083       .  S
C1374      C1375   1.415       .  A
C1375      C1376   1.406       .  A
C1375      C1379   1.518       .  S
C1376      H1380   1.083       .  S
C1377      F1390   1.385       .  S
C1377      F1391   1.382       .  S
C1377      F1392   1.382       .  S
C1379      F1387   1.385       .  S
C1379      F1388   1.382       .  S
C1379      F1389   1.382       .  S
C1393      C1394   1.403       .  A
C1393      C1398   1.408       .  A
C1393      H1403   1.083       .  S
C1394      C1395   1.417       .  A
C1394      C1399   1.483       .  S
C1395      C1396   1.404       .  A
C1395      C1400   1.521       .  S
C1396      C1397   1.402       .  A
C1396      H1401   1.083       .  S
C1397      C1398   1.414       .  A
C1398      C1402   1.516       .  S
C1399      C1404   1.412       .  A
C1399      C1408   1.400       .  A
C1400      F1416   1.382       .  S
C1400      F1417   1.382       .  S
C1400      F1418   1.385       .  S
C1402      F1413   1.383       .  S
C1402      F1414   1.384       .  S
C1402      F1415   1.382       .  S
C1404      C1405   1.406       .  A
C1404      C1409   1.520       .  S
C1405      C1406   1.411       .  A
C1405      H1410   1.083       .  S
C1406      C1407   1.425       .  A
C1407      C1408   1.409       .  A
C1407      C1411   1.518       .  S
C1408      H1412   1.083       .  S
C1409      F1422   1.385       .  S
C1409      F1423   1.382       .  S
C1409      F1424   1.382       .  S
C1411      F1419   1.383       .  S
C1411      F1420   1.381       .  S
C1411      F1421   1.385       .  S
C1425      C1426   1.402       .  A
C1425      C1430   1.405       .  A
C1425      H1435   1.083       .  S
C1426      C1427   1.414       .  A
C1426      C1431   1.475       .  S
C1427      C1428   1.400       .  A
C1427      C1432   1.520       .  S
C1428      C1429   1.402       .  A
C1428      H1433   1.084       .  S
C1429      C1430   1.416       .  A
C1430      C1434   1.519       .  S
C1431      C1436   1.411       .  A
C1431      C1440   1.399       .  A
C1432      F1448   1.382       .  S
C1432      F1449   1.381       .  S
C1432      F1450   1.385       .  S
C1434      F1445   1.381       .  S
C1434      F1446   1.384       .  S
C1434      F1447   1.383       .  S
C1436      C1437   1.402       .  A
C1436      C1441   1.521       .  S
C1437      C1438   1.406       .  A
C1437      H1442   1.083       .  S
C1438      C1439   1.424       .  A
C1439      C1440   1.407       .  A
C1439      C1443   1.520       .  S
C1440      H1444   1.083       .  S
C1441      F1454   1.384       .  S
C1441      F1455   1.383       .  S
C1441      F1456   1.382       .  S
C1443      F1451   1.383       .  S
C1443      F1452   1.383       .  S
C1443      F1453   1.385       .  S
C1457      C1458   1.404       .  A
C1457      C1462   1.406       .  A
C1457      H1467   1.083       .  S
C1458      C1459   1.415       .  A
C1458      C1463   1.475       .  S
C1459      C1460   1.398       .  A
C1459      C1464   1.521       .  S
C1460      C1461   1.401       .  A
C1460      H1465   1.083       .  S
C1461      C1462   1.413       .  A
C1462      C1466   1.517       .  S
C1463      C1468   1.412       .  A
C1463      C1472   1.399       .  A
C1464      F1480   1.382       .  S
C1464      F1481   1.382       .  S
C1464      F1482   1.385       .  S
C1466      F1477   1.385       .  S
C1466      F1478   1.382       .  S
C1466      F1479   1.383       .  S
C1468      C1469   1.404       .  A
C1468      C1473   1.520       .  S
C1469      C1470   1.409       .  A
C1469      H1474   1.083       .  S
C1470      C1471   1.420       .  A
C1471      C1472   1.403       .  A
C1471      C1475   1.518       .  S
C1472      H1476   1.083       .  S
C1473      F1486   1.385       .  S
C1473      F1487   1.382       .  S
C1473      F1488   1.382       .  S
C1475      F1483   1.382       .  S
C1475      F1484   1.383       .  S
C1475      F1485   1.385       .  S
C1489      C1490   1.397       .  A
C1489      C1494   1.406       .  A
C1489      H1499   1.083       .  S
C1490      C1491   1.411       .  A
C1490      C1495   1.475       .  S
C1491      C1492   1.403       .  A
C1491      C1496   1.521       .  S
C1492      C1493   1.410       .  A
C1492      H1497   1.082       .  S
C1493      C1494   1.426       .  A
C1494      C1498   1.518       .  S
C1495      C1500   1.414       .  A
C1495      C1504   1.399       .  A
C1496      F1512   1.383       .  S
C1496      F1513   1.381       .  S
C1496      F1514   1.385       .  S
C1498      F1509   1.385       .  S
C1498      F1510   1.382       .  S
C1498      F1511   1.382       .  S
C1500      C1501   1.405       .  A
C1500      C1505   1.518       .  S
C1501      C1502   1.401       .  A
C1501      H1506   1.083       .  S
C1502      C1503   1.416       .  A
C1503      C1504   1.401       .  A
C1503      C1507   1.520       .  S
C1504      H1508   1.083       .  S
C1505      F1518   1.384       .  S
C1505      F1519   1.383       .  S
C1505      F1520   1.382       .  S
C1507      F1515   1.385       .  S
C1507      F1516   1.382       .  S
C1507      F1517   1.382       .  S
C1521      C1522   1.397       .  A
C1521      C1526   1.406       .  A
C1521      H1531   1.083       .  S
C1522      C1523   1.411       .  A
C1522      C1527   1.480       .  S
C1523      C1524   1.405       .  A
C1523      C1528   1.519       .  S
C1524      C1525   1.410       .  A
C1524      H1529   1.082       .  S
C1525      C1526   1.429       .  A
C1526      C1530   1.523       .  S
C1527      C1532   1.417       .  A
C1527      C1536   1.403       .  A
C1528      F1544   1.382       .  S
C1528      F1545   1.382       .  S
C1528      F1546   1.385       .  S
C1530      F1541   1.385       .  S
C1530      F1542   1.383       .  S
C1530      F1543   1.384       .  S
C1532      C1533   1.403       .  A
C1532      C1537   1.521       .  S
C1533      C1534   1.401       .  A
C1533      H1538   1.083       .  S
C1534      C1535   1.413       .  A
C1535      C1536   1.406       .  A
C1535      C1539   1.516       .  S
C1536      H1540   1.083       .  S
C1537      F1550   1.385       .  S
C1537      F1551   1.382       .  S
C1537      F1552   1.382       .  S
C1539      F1547   1.383       .  S
C1539      F1548   1.383       .  S
C1539      F1549   1.384       .  S
C1553      C1554   1.400       .  A
C1553      C1558   1.399       .  A
C1553      H1563   1.084       .  S
C1554      C1555   1.414       .  A
C1554      C1559   1.467       .  S
C1555      C1556   1.401       .  A
C1555      C1560   1.520       .  S
C1556      C1557   1.402       .  A
C1556      H1561   1.084       .  S
C1557      C1558   1.413       .  A
C1558      C1562   1.516       .  S
C1559      C1564   1.414       .  A
C1559      C1568   1.399       .  A
C1560      F1576   1.382       .  S
C1560      F1577   1.381       .  S
C1560      F1578   1.385       .  S
C1562      F1573   1.385       .  S
C1562      F1574   1.382       .  S
C1562      F1575   1.384       .  S
C1564      C1565   1.403       .  A
C1564      C1569   1.518       .  S
C1565      C1566   1.400       .  A
C1565      H1570   1.083       .  S
C1566      C1567   1.415       .  A
C1567      C1568   1.397       .  A
C1567      C1571   1.521       .  S
C1568      H1572   1.084       .  S
C1569      F1582   1.385       .  S
C1569      F1583   1.382       .  S
C1569      F1584   1.381       .  S
C1571      F1579   1.383       .  S
C1571      F1580   1.382       .  S
C1571      F1581   1.385       .  S
C1585      C1586   1.399       .  A
C1585      C1590   1.404       .  A
C1585      H1595   1.083       .  S
C1586      C1587   1.414       .  A
C1586      C1591   1.474       .  S
C1587      C1588   1.402       .  A
C1587      C1592   1.521       .  S
C1588      C1589   1.405       .  A
C1588      H1593   1.083       .  S
C1589      C1590   1.422       .  A
C1590      C1594   1.522       .  S
C1591      C1596   1.415       .  A
C1591      C1600   1.400       .  A
C1592      F1608   1.382       .  S
C1592      F1609   1.382       .  S
C1592      F1610   1.384       .  S
C1594      F1605   1.383       .  S
C1594      F1606   1.385       .  S
C1594      F1607   1.384       .  S
C1596      C1597   1.405       .  A
C1596      C1601   1.518       .  S
C1597      C1598   1.402       .  A
C1597      H1602   1.083       .  S
C1598      C1599   1.415       .  A
C1599      C1600   1.399       .  A
C1599      C1603   1.519       .  S
C1600      H1604   1.083       .  S
C1601      F1614   1.385       .  S
C1601      F1615   1.382       .  S
C1601      F1616   1.382       .  S
C1603      F1611   1.381       .  S
C1603      F1612   1.383       .  S
C1603      F1613   1.385       .  S
C1617      C1618   1.399       .  A
C1617      C1622   1.405       .  A
C1617      H1627   1.083       .  S
C1618      C1619   1.411       .  A
C1618      C1623   1.473       .  S
C1619      C1620   1.400       .  A
C1619      C1624   1.520       .  S
C1620      C1621   1.406       .  A
C1620      H1625   1.083       .  S
C1621      C1622   1.424       .  A
C1622      C1626   1.520       .  S
C1623      C1628   1.415       .  A
C1623      C1632   1.399       .  A
C1624      F1640   1.382       .  S
C1624      F1641   1.381       .  S
C1624      F1642   1.385       .  S
C1626      F1637   1.385       .  S
C1626      F1638   1.382       .  S
C1626      F1639   1.383       .  S
C1628      C1629   1.405       .  A
C1628      C1633   1.519       .  S
C1629      C1630   1.401       .  A
C1629      H1634   1.083       .  S
C1630      C1631   1.416       .  A
C1631      C1632   1.400       .  A
C1631      C1635   1.521       .  S
C1632      H1636   1.083       .  S
C1633      F1646   1.384       .  S
C1633      F1647   1.382       .  S
C1633      F1648   1.382       .  S
C1635      F1643   1.384       .  S
C1635      F1644   1.383       .  S
C1635      F1645   1.382       .  S
C1649      C1650   1.398       .  A
C1649      C1654   1.404       .  A
C1649      H1659   1.083       .  S
C1650      C1651   1.411       .  A
C1650      C1655   1.476       .  S
C1651      C1652   1.406       .  A
C1651      C1656   1.521       .  S
C1652      C1653   1.410       .  A
C1652      H1657   1.083       .  S
C1653      C1654   1.424       .  A
C1654      C1658   1.521       .  S
C1655      C1660   1.416       .  A
C1655      C1664   1.403       .  A
C1656      F1672   1.382       .  S
C1656      F1673   1.382       .  S
C1656      F1674   1.385       .  S
C1658      F1669   1.385       .  S
C1658      F1670   1.383       .  S
C1658      F1671   1.383       .  S
C1660      C1661   1.401       .  A
C1660      C1665   1.523       .  S
C1661      C1662   1.400       .  A
C1661      H1666   1.083       .  S
C1662      C1663   1.415       .  A
C1663      C1664   1.407       .  A
C1663      C1667   1.518       .  S
C1664      H1668   1.083       .  S
C1665      F1678   1.384       .  S
C1665      F1679   1.382       .  S
C1665      F1680   1.381       .  S
C1667      F1675   1.382       .  S
C1667      F1676   1.382       .  S
C1667      F1677   1.384       .  S
C1681      C1682   1.401       .  A
C1681      C1686   1.402       .  A
C1681      H1691   1.083       .  S
C1682      C1683   1.416       .  A
C1682      C1687   1.472       .  S
C1683      C1684   1.403       .  A
C1683      C1688   1.520       .  S
C1684      C1685   1.400       .  A
C1684      H1689   1.084       .  S
C1685      C1686   1.411       .  A
C1686      C1690   1.516       .  S
C1687      C1692   1.413       .  A
C1687      C1696   1.400       .  A
C1688      F1704   1.382       .  S
C1688      F1705   1.382       .  S
C1688      F1706   1.385       .  S
C1690      F1701   1.385       .  S
C1690      F1702   1.382       .  S
C1690      F1703   1.383       .  S
C1692      C1693   1.404       .  A
C1692      C1697   1.518       .  S
C1693      C1694   1.401       .  A
C1693      H1698   1.083       .  S
C1694      C1695   1.416       .  A
C1695      C1696   1.401       .  A
C1695      C1699   1.519       .  S
C1696      H1700   1.083       .  S
C1697      F1710   1.384       .  S
C1697      F1711   1.382       .  S
C1697      F1712   1.382       .  S
C1699      F1707   1.379       .  S
C1699      F1708   1.382       .  S
C1699      F1709   1.385       .  S
C1713      C1714   1.399       .  A
C1713      C1718   1.400       .  A
C1713      H1723   1.083       .  S
C1714      C1715   1.417       .  A
C1714      C1719   1.481       .  S
C1715      C1716   1.408       .  A
C1715      C1720   1.518       .  S
C1716      C1717   1.402       .  A
C1716      H1721   1.083       .  S
C1717      C1718   1.416       .  A
C1718      C1722   1.519       .  S
C1719      C1724   1.417       .  A
C1719      C1728   1.402       .  A
C1720      F1736   1.382       .  S
C1720      F1737   1.383       .  S
C1720      F1738   1.385       .  S
C1722      F1733   1.385       .  S
C1722      F1734   1.381       .  S
C1722      F1735   1.379       .  S
C1724      C1725   1.404       .  A
C1724      C1729   1.520       .  S
C1725      C1726   1.401       .  A
C1725      H1730   1.083       .  S
C1726      C1727   1.417       .  A
C1727      C1728   1.404       .  A
C1727      C1731   1.520       .  S
C1728      H1732   1.083       .  S
C1729      F1742   1.385       .  S
C1729      F1743   1.381       .  S
C1729      F1744   1.382       .  S
C1731      F1739   1.383       .  S
C1731      F1740   1.382       .  S
C1731      F1741   1.385       .  S
C1745      C1746   1.398       .  A
C1745      C1750   1.402       .  A
C1745      H1755   1.083       .  S
C1746      C1747   1.415       .  A
C1746      C1751   1.475       .  S
C1747      C1748   1.406       .  A
C1747      C1752   1.520       .  S
C1748      C1749   1.404       .  A
C1748      H1753   1.083       .  S
C1749      C1750   1.419       .  A
C1750      C1754   1.521       .  S
C1751      C1756   1.415       .  A
C1751      C1760   1.402       .  A
C1752      F1768   1.383       .  S
C1752      F1769   1.383       .  S
C1752      F1770   1.384       .  S
C1754      F1765   1.384       .  S
C1754      F1766   1.384       .  S
C1754      F1767   1.382       .  S
C1756      C1757   1.400       .  A
C1756      C1761   1.520       .  S
C1757      C1758   1.400       .  A
C1757      H1762   1.083       .  S
C1758      C1759   1.414       .  A
C1759      C1760   1.405       .  A
C1759      C1763   1.518       .  S
C1760      H1764   1.083       .  S
C1761      F1774   1.385       .  S
C1761      F1775   1.383       .  S
C1761      F1776   1.382       .  S
C1763      F1771   1.384       .  S
C1763      F1772   1.383       .  S
C1763      F1773   1.381       .  S
C1777      C1778   1.398       .  A
C1777      C1782   1.400       .  A
C1777      H1787   1.083       .  S
C1778      C1779   1.415       .  A
C1778      C1783   1.476       .  S
C1779      C1780   1.408       .  A
C1779      C1784   1.519       .  S
C1780      C1781   1.403       .  A
C1780      H1785   1.083       .  S
C1781      C1782   1.416       .  A
C1782      C1786   1.516       .  S
C1783      C1788   1.416       .  A
C1783      C1792   1.401       .  A
C1784      F1800   1.382       .  S
C1784      F1801   1.383       .  S
C1784      F1802   1.384       .  S
C1786      F1797   1.384       .  S
C1786      F1798   1.382       .  S
C1786      F1799   1.384       .  S
C1788      C1789   1.402       .  A
C1788      C1793   1.520       .  S
C1789      C1790   1.402       .  A
C1789      H1794   1.084       .  S
C1790      C1791   1.416       .  A
C1791      C1792   1.401       .  A
C1791      C1795   1.518       .  S
C1792      H1796   1.085       .  S
C1793      F1806   1.385       .  S
C1793      F1807   1.382       .  S
C1793      F1808   1.382       .  S
C1795      F1803   1.383       .  S
C1795      F1804   1.381       .  S
C1795      F1805   1.383       .  S
C1809      C1810   1.402       .  A
C1809      C1814   1.402       .  A
C1809      H1819   1.083       .  S
C1810      C1811   1.414       .  A
C1810      C1815   1.473       .  S
C1811      C1812   1.403       .  A
C1811      C1816   1.519       .  S
C1812      C1813   1.400       .  A
C1812      H1817   1.083       .  S
C1813      C1814   1.413       .  A
C1814      C1818   1.519       .  S
C1815      C1820   1.414       .  A
C1815      C1824   1.401       .  A
C1816      F1832   1.382       .  S
C1816      F1833   1.383       .  S
C1816      F1834   1.384       .  S
C1818      F1829   1.383       .  S
C1818      F1830   1.385       .  S
C1818      F1831   1.383       .  S
C1820      C1821   1.400       .  A
C1820      C1825   1.521       .  S
C1821      C1822   1.403       .  A
C1821      H1826   1.084       .  S
C1822      C1823   1.415       .  A
C1823      C1824   1.401       .  A
C1823      C1827   1.517       .  S
C1824      H1828   1.085       .  S
C1825      F1838   1.385       .  S
C1825      F1839   1.382       .  S
C1825      F1840   1.382       .  S
C1827      F1835   1.383       .  S
C1827      F1836   1.381       .  S
C1827      F1837   1.384       .  S
C1841      C1842   1.400       .  A
C1841      C1846   1.403       .  A
C1841      H1851   1.083       .  S
C1842      C1843   1.416       .  A
C1842      C1847   1.473       .  S
C1843      C1844   1.402       .  A
C1843      C1848   1.520       .  S
C1844      C1845   1.398       .  A
C1844      H1849   1.084       .  S
C1845      C1846   1.413       .  A
C1846      C1850   1.514       .  S
C1847      C1852   1.414       .  A
C1847      C1856   1.401       .  A
C1848      F1864   1.382       .  S
C1848      F1865   1.382       .  S
C1848      F1866   1.385       .  S
C1850      F1861   1.378       .  S
C1850      F1862   1.385       .  S
C1850      F1863   1.383       .  S
C1852      C1853   1.402       .  A
C1852      C1857   1.520       .  S
C1853      C1854   1.402       .  A
C1853      H1858   1.083       .  S
C1854      C1855   1.413       .  A
C1855      C1856   1.403       .  A
C1855      C1859   1.517       .  S
C1856      H1860   1.083       .  S
C1857      F1870   1.384       .  S
C1857      F1871   1.382       .  S
C1857      F1872   1.383       .  S
C1859      F1867   1.384       .  S
C1859      F1868   1.383       .  S
C1859      F1869   1.382       .  S
C1873      C1874   1.402       .  A
C1873      C1878   1.405       .  A
C1873      H1883   1.083       .  S
C1874      C1875   1.414   1_556  A
C1874      C1879   1.477       .  S
C1875      C1876   1.403   1_554  A
C1875      C1880   1.520       .  S
C1876      C1877   1.402       .  A
C1876      H1881   1.083   1_556  S
C1877      C1878   1.415       .  A
C1879      C1884   1.415       .  A
C1879      C1888   1.403   1_556  A
C1880      F1896   1.382       .  S
C1880      F1897   1.382   1_554  S
C1880      F1898   1.384       .  S
C1882      F1894   1.384       .  S
C1882      F1895   1.383       .  S
C1884      C1885   1.401       .  A
C1884      C1889   1.518       .  S
C1885      C1886   1.400       .  A
C1885      H1890   1.083       .  S
C1886      C1887   1.414   1_556  A
C1887      C1888   1.405       .  A
C1889      F1902   1.384       .  S
C1889      F1903   1.382       .  S
C1889      F1904   1.382       .  S
C1891      F1899   1.383       .  S
C1891      F1900   1.382       .  S
C1891      F1901   1.384       .  S
C1905      C1906   1.401   1_554  A
C1905      C1910   1.406       .  A
C1905      H1915   1.083       .  S
C1906      C1907   1.416       .  A
C1906      C1911   1.484       .  S
C1907      C1908   1.408       .  A
C1907      C1912   1.519       .  S
C1908      C1909   1.404       .  A
C1908      H1913   1.083       .  S
C1909      C1910   1.418   1_556  A
C1911      C1916   1.416       .  A
C1911      C1920   1.403   1_556  A
C1912      F1928   1.382       .  S
C1912      F1929   1.382       .  S
C1912      F1930   1.384       .  S
C1914      F1926   1.384       .  S
C1916      C1917   1.406       .  A
C1916      C1921   1.520       .  S
C1917      C1918   1.402       .  A
C1917      H1922   1.083       .  S
C1918      C1919   1.416   1_556  A
C1919      C1920   1.408       .  A
C1921      F1934   1.384       .  S
C1921      F1935   1.382   1_556  S
C1921      F1936   1.382       .  S
C1923      F1931   1.383       .  S
C1923      F1932   1.383       .  S
C1923      F1933   1.384       .  S
C1937      C1938   1.402       .  A
C1937      C1942   1.406       .  A
C1937      H1947   1.083       .  S
C1938      C1939   1.417       .  A
C1938      C1943   1.479       .  S
C1939      C1940   1.405       .  A
C1940      C1941   1.400       .  A
C1941      C1942   1.414       .  A
C1942      C1946   1.518       .  S
C1943      C1948   1.414   1_556  A
C1943      C1952   1.400       .  A
C1944      F1961   1.383       .  S
C1944      F1962   1.384       .  S
C1946      F1957   1.384   1_556  S
C1946      F1958   1.384       .  S
C1946      F1959   1.383   1_556  S
C1948      C1949   1.406       .  A
C1949      C1950   1.404   1_554  A
C1949      H1954   1.083       .  S
C1950      C1951   1.418       .  A
C1951      C1952   1.402       .  A
C1951      C1955   1.519       .  S
C1952      H1956   1.085       .  S
C1953      F1966   1.384       .  S
C1953      F1968   1.382       .  S
C1955      F1963   1.384       .  S
C1955      F1964   1.381       .  S
C1955      F1965   1.383       .  S
C1969      C1970   1.401       .  A
C1969      C1974   1.407       .  A
C1969      H1979   1.085       .  S
C1970      C1971   1.416   1_556  A
C1970      C1975   1.488       .  S
C1971      C1972   1.407       .  A
C1971      C1976   1.519       .  S
C1972      C1973   1.404   1_554  A
C1972      H1977   1.083       .  S
C1973      C1974   1.422       .  A
C1974      C1978   1.519       .  S
C1975      C1980   1.417       .  A
C1975      C1984   1.403       .  A
C1976      F1992   1.382       .  S
C1978      F1989   1.384       .  S
C1978      F1990   1.383       .  S
C1978      F1991   1.380       .  S
C1980      C1981   1.409       .  A
C1981      C1982   1.402       .  A
C1982      C1983   1.416       .  A
C1983      C1984   1.408       .  A
C1983      C1987   1.518       .  S
C1984      H1988   1.083       .  S
C1985      F1998   1.385       .  S
C1985      F1999   1.382       .  S
C1985      F2000   1.382       .  S
C1987      F1995   1.382       .  S
C1987      F1996   1.383       .  S
C1987      F1997   1.385       .  S
C2001      C2002   1.402   1_554  A
C2002      C2003   1.416       .  A
C2002      C2007   1.490       .  S
C2003      C2004   1.410       .  A
C2003      C2008   1.519       .  S
C2004      C2005   1.405       .  A
C2004      H2009   1.083       .  S
C2006      C2010   1.518       .  S
C2007      C2012   1.414       .  A
C2008      F2025   1.382       .  S
C2008      F2026   1.385       .  S
C2010      F2022   1.382       .  S
C2010      F2023   1.384       .  S
C2012      C2013   1.407       .  A
C2012      C2017   1.519       .  S
C2013      C2014   1.407       .  A
C2013      H2018   1.083       .  S
C2015      C2016   1.410       .  A
C2015      C2019   1.521       .  S
C2016      H2020   1.083       .  S
C2017      F2030   1.385       .  S
C2017      F2031   1.382       .  S
C2017      F2032   1.382       .  S
C2019      F2027   1.385       .  S
C2019      F2028   1.383       .  S
C2019      F2029   1.383       .  S
C2033      C2034   1.402       .  A
C2033      C2038   1.410       .  A
C2033      H2043   1.083       .  S
C2034      C2035   1.414   1_556  A
C2034      C2039   1.485       .  S
C2035      C2036   1.404       .  A
C2035      C2040   1.519       .  S
C2036      C2037   1.406   1_554  A
C2036      H2041   1.083       .  S
C2037      C2038   1.423       .  A
C2038      C2042   1.520       .  S
C2039      C2044   1.418       .  A
C2040      F2057   1.382       .  S
C2040      F2058   1.385       .  S
C2042      F2053   1.383       .  S
C2042      F2055   1.383       .  S
C2044      C2045   1.405       .  A
C2044      C2049   1.519       .  S
C2045      C2046   1.400       .  A
C2045      H2050   1.083       .  S
C2047      C2048   1.403       .  A
C2047      C2051   1.518       .  S
C2048      H2052   1.083       .  S
C2049      F2062   1.385       .  S
C2049      F2063   1.382       .  S
C2049      F2064   1.383       .  S
C2051      F2059   1.384       .  S
C2051      F2060   1.383       .  S
C2051      F2061   1.382       .  S
C2065      C2066   1.399       .  A
C2065      C2070   1.406       .  A
C2065      H2075   1.083       .  S
C2066      C2071   1.483       .  S
C2067      C2068   1.405       .  A
C2067      C2072   1.520       .  S
C2068      H2073   1.083       .  S
C2069      C2070   1.419       .  A
C2070      C2074   1.516       .  S
C2071      C2080   1.401       .  A
C2072      F2089   1.383       .  S
C2072      F2090   1.384       .  S
C2074      F2085   1.377       .  S
C2074      F2086   1.385       .  S
C2074      F2087   1.382       .  S
C2076      C2077   1.404       .  A
C2076      C2081   1.520       .  S
C2077      H2082   1.082       .  S
C2078      C2079   1.423       .  A
C2079      C2080   1.408       .  A
C2079      C2083   1.520       .  S
C2080      H2084   1.083       .  S
C2081      F2094   1.384       .  S
C2081      F2095   1.382       .  S
C2081      F2096   1.382       .  S
C2083      F2091   1.385       .  S
C2083      F2092   1.385       .  S
C2083      F2093   1.382       .  S
C2097      C2098   1.400       .  A
C2097      C2102   1.406       .  A
C2097      H2107   1.083       .  S
C2098      C2103   1.484       .  S
C2099      C2100   1.407       .  A
C2099      C2104   1.521       .  S
C2100      H2105   1.082       .  S
C2101      C2102   1.422       .  A
C2102      C2106   1.521       .  S
C2103      C2112   1.399       .  A
C2104      F2120   1.382       .  S
C2104      F2121   1.383       .  S
C2104      F2122   1.384       .  S
C2106      F2117   1.384   1_556  S
C2106      F2118   1.384   1_556  S
C2106      F2119   1.383       .  S
C2108      C2109   1.404       .  A
C2108      C2113   1.520       .  S
C2109      H2114   1.083       .  S
C2110      C2111   1.418       .  A
C2111      C2112   1.404       .  A
C2111      C2115   1.516       .  S
C2112      H2116   1.083       .  S
C2113      F2126   1.384       .  S
C2113      F2128   1.382       .  S
C2115      F2123   1.382       .  S
C2115      F2124   1.377       .  S
C2115      F2125   1.385       .  S
