geometry optimzed in LAMMPS
_audit_creation_date              2020-11-30 
_audit_creation_method            'lammps2cif' 
_symmetry_space_group_name_H-M    'P1' 
_symmetry_Int_Tables_number       1 
_symmetry_cell_setting            triclinic 
loop_ 
_symmetry_equiv_pos_as_xyz 
  x,y,z 
_cell_length_a                    37.12412078 
_cell_length_b                    22.03939335940188 
_cell_length_c                    36.901415712778075 
_cell_angle_alpha                 90.30647444804318 
_cell_angle_beta                  89.90045275597058 
_cell_angle_gamma                 92.19150170264577 
loop_ 
_atom_site_label 
_atom_site_type_symbol 
_atom_site_fract_x 
_atom_site_fract_y 
_atom_site_fract_z 
_atom_site_charge 
O1          O  0.18106312  0.40227711  0.31999797    -0.73300
O2          O  0.20570540  0.32960912  0.28454388    -0.52200
C3          C  0.18556365  0.34656577  0.31063269     0.80400
O4          O  0.18160195  0.60861622  0.17855372    -0.57900
O5          O  0.21618697  0.67898365  0.20966982    -0.50900
C6          C  0.19102154  0.66383962  0.18692514     0.72400
O7          O  0.17546343  0.40265943  0.17631055    -0.72500
O8          O  0.20551703  0.32901523  0.20541877    -0.53000
C9          C  0.18222206  0.34675119  0.18272824     0.78400
O10         O  0.18647791  0.60807013  0.31820297    -0.57600
O11         O  0.22344928  0.67826646  0.28991587    -0.50700
C12         C  0.19785356  0.66304968  0.31203891     0.75000
Zr13       Zr  0.20116755  0.50459977  0.30151044     2.54700
O14         O  0.13577833  0.50384019  0.30715912    -0.78200
O15         O  0.20912863  0.50836117  0.36697263    -0.91600
Zr16       Zr  0.19604553  0.50490684  0.19429210     2.64700
O17         O  0.13055997  0.50419914  0.19863443    -0.96600
O18         O  0.19420693  0.50847702  0.12839207    -0.78600
O19         O  0.19440666  0.44576922  0.24771648    -0.82000
O20         O  0.20042705  0.56385177  0.24818670    -2.16700
O21         O  0.33525995  0.59361276  0.30815839    -0.65400
O22         O  0.30385039  0.66994627  0.28281442    -0.49900
C23         C  0.32974432  0.64958174  0.30191499     0.73400
O24         O  0.31830921  0.39246575  0.17520625    -0.58300
O25         O  0.28455985  0.32379420  0.20805082    -0.50300
C26         C  0.30930252  0.33766931  0.18496447     0.75200
O27         O  0.31430694  0.59933057  0.16442717    -0.69700
O28         O  0.29408592  0.67406805  0.20164885    -0.48300
C29         C  0.31055547  0.65535639  0.17323111     0.76600
O30         O  0.31815496  0.39148208  0.31359251    -0.65000
O31         O  0.27962894  0.32379994  0.28509722    -0.52200
C32         C  0.30489361  0.33742725  0.30759599     0.75000
Zr33       Zr  0.30760983  0.49552239  0.29494152     2.77500
O34         O  0.37194352  0.48137395  0.28753861    -0.95700
O35         O  0.31275996  0.50118779  0.36064857    -0.76600
Zr36       Zr  0.30231377  0.49754550  0.18854570     2.70100
O37         O  0.36794780  0.50458608  0.19081114    -0.77800
O38         O  0.30316632  0.49117987  0.12263246    -0.96900
Zr39       Zr  0.24606060  0.38508894  0.24456932     2.21500
Zr40       Zr  0.25700800  0.61932694  0.24601544     2.11100
O41         O  0.30814026  0.55655853  0.24201573    -2.45600
O42         O  0.30311477  0.43716755  0.24137874    -0.77600
O43         O  0.25748472  0.55948671  0.29979207    -0.69800
O44         O  0.24645235  0.44230072  0.18983684    -2.30800
O45         O  0.25142650  0.44219707  0.29924978    -2.27000
O46         O  0.25181186  0.56030710  0.19166293    -0.71600
H47         H  0.18056364  0.59084319  0.24930299     0.80400
H48         H  0.24474466  0.41622903  0.16871997     0.81500
H49         H  0.33020426  0.58102988  0.24025177     0.83700
H50         H  0.25103159  0.41649093  0.32036523     0.81400
H51         H  0.21885108  0.49850579  0.12066241     0.44400
H52         H  0.32903634  0.48952026  0.11627157     0.43400
H53         H  0.37423285  0.54843465  0.19351833     0.43000
H54         H  0.38063410  0.51578390  0.27230828     0.41000
H55         H  0.29007020  0.48166164  0.36974242     0.44100
H56         H  0.18546148  0.52017932  0.37656433     0.38900
H57         H  0.13070985  0.48818590  0.33182773     0.45000
H58         H  0.12509652  0.54382496  0.20970688     0.41400
H59         H  0.38233432  0.49017929  0.31178293     0.46300
H60         H  0.22533545  0.54439441  0.37130269     0.45100
H61         H  0.12227687  0.50721448  0.17323516     0.45200
H62         H  0.29296480  0.45016315  0.11674206     0.45600
O63         O  0.41900364  0.40192633  0.43091891    -0.73300
O64         O  0.45225402  0.33406580  0.46177941    -0.52200
C65         C  0.42880672  0.34767270  0.43806938     0.80400
O66         O  0.06680255  0.59746317  0.42707428    -0.57900
O67         O  0.03550359  0.66942462  0.45699392    -0.50900
C68         C  0.05911958  0.65309490  0.43382776     0.72400
O69         O  0.06111489  0.39155701  0.43031663    -0.72500
O70         O  0.02580695  0.32091114  0.46016636    -0.53000
C71         C  0.05082485  0.33645561  0.43755524     0.78400
O72         O  0.42022730  0.61044929  0.42970387    -0.57600
O73         O  0.45130534  0.68107736  0.46396026    -0.50700
C74         C  0.42922318  0.66596275  0.43853469     0.75000
Zr75       Zr  0.43396724  0.50675630  0.45011262     2.54700
O76         O  0.42886009  0.50449433  0.38434722    -0.78200
O77         O  0.36858334  0.50462138  0.45618937    -0.91600
Zr78       Zr  0.04663719  0.49506586  0.44639050     2.64700
O79         O  0.04780348  0.49119504  0.38041247    -0.96600
O80         O  0.11204845  0.49456091  0.45091950    -0.78600
O81         O  0.48749813  0.45016937  0.44928500    -0.82000
O82         O  0.48839339  0.56650999  0.44892686    -2.16700
O83         O  0.42350066  0.62577543  0.06949155    -0.65400
O84         O  0.45664259  0.69357708  0.03558167    -0.49900
C85         C  0.43264843  0.68067932  0.05979673     0.73400
O86         O  0.05235125  0.40335744  0.07121054    -0.58300
O87         O  0.01870021  0.33071344  0.04086899    -0.50300
C88         C  0.04261364  0.34765901  0.06410157     0.75200
O89         O  0.06026702  0.60961779  0.06714362    -0.69700
O90         O  0.03246669  0.67973266  0.03278647    -0.48300
C91         C  0.05539412  0.66454480  0.05696275     0.76600
O92         O  0.43103864  0.42089035  0.08345556    -0.65000
O93         O  0.45180589  0.34455192  0.04788416    -0.52200
C94         C  0.43525613  0.36458488  0.07579874     0.75000
Zr95       Zr  0.43838357  0.51956837  0.05430467     2.77500
O96         O  0.42199133  0.52764562  0.11808723    -0.95700
O97         O  0.37419934  0.50726952  0.04137698    -0.76600
Zr98       Zr  0.03750094  0.50672852  0.05347212     2.70100
O99         O  0.02938735  0.51390933  0.11881575    -0.77800
O100        O  0.10252690  0.50130081  0.06032495    -0.96900
Zr101      Zr  0.49347124  0.39705607  0.00730957     2.21500
Zr102      Zr  0.49622115  0.63036204  0.00037583     2.11100
O103        O  0.49311074  0.57812632  0.05681442    -2.45600
O104        O  0.49078483  0.46097311  0.05955888    -0.77600
O105        O  0.44085025  0.57201121  0.99849970    -0.69800
O106        O  0.03993265  0.44671043  0.00023960    -2.30800
O107        O  0.43939321  0.45215401  0.00347233    -2.27000
O108        O  0.04218267  0.56408903  0.99918852    -0.71600
H109        H  0.48876003  0.59233302  0.42786313     0.80400
H110        H  0.06041788  0.42109938  0.00155164     0.81500
H111        H  0.49273605  0.60623367  0.07697855     0.83700
H112        H  0.41836382  0.42494037  0.00339740     0.81400
H113        H  0.12025789  0.48407250  0.42619961     0.44400
H114        H  0.11279192  0.53318014  0.04410543     0.43400
H115        H  0.01880294  0.47378899  0.12590170     0.43000
H116        H  0.43823238  0.56026082  0.12806093     0.41000
H117        H  0.36851844  0.46337593  0.04465683     0.44100
H118        H  0.36092219  0.46132384  0.45342664     0.38900
H119        H  0.44720734  0.53494795  0.37580703     0.45000
H120        H  0.02871335  0.51850346  0.37273450     0.41400
H121        H  0.39777106  0.54498455  0.11818356     0.46300
H122        H  0.36005462  0.52405529  0.43381225     0.45100
H123        H  0.07063044  0.51283510  0.37349516     0.45200
H124        H  0.10755519  0.51676900  0.08512110     0.45600
C125        C  0.36517218  0.25297376  0.37415303    -0.00500
O126        O  0.31159765  0.10467789  0.42882365    -0.73300
O127        O  0.27996446  0.17051869  0.46345135    -0.52200
C128        C  0.30359045  0.15853906  0.43940658     0.80400
O129        O  0.17576282  0.87875381  0.42617863    -0.57900
O130        O  0.20837522  0.81020009  0.45689548    -0.50900
C131        C  0.18472947  0.82411103  0.43318876     0.72400
O132        O  0.16566249  0.08218024  0.43177104    -0.72500
O133        O  0.19835585  0.15907783  0.45946586    -0.53000
C134        C  0.17238871  0.13860527  0.43922748     0.78400
O135        O  0.31927374  0.89850162  0.42788963    -0.57600
O136        O  0.28794063  0.82286809  0.45791286    -0.50700
C137        C  0.31210946  0.84202941  0.43516566     0.75000
Zr138      Zr  0.29691542  0.99831675  0.44484183     2.54700
O139        O  0.29341866  0.99689541  0.37896111    -0.78200
O140        O  0.36246252  0.00969852  0.44454691    -0.91600
Zr141      Zr  0.19093690  0.98339370  0.44364639     2.64700
O142        O  0.19948456  0.98928728  0.37828567    -0.96600
O143        O  0.12591503  0.97068262  0.43623658    -0.78600
O144        O  0.24223750  0.05092758  0.44345108    -0.81600
O145        O  0.24543526  0.93116369  0.44364029    -2.16700
O146        O  0.31460856  0.90380805  0.06559897    -0.65400
O147        O  0.28761632  0.82954218  0.03059051    -0.49900
C148        C  0.31056649  0.84816737  0.05479294     0.73400
O149        O  0.15662733  0.08805118  0.06132409    -0.58300
O150        O  0.19137588  0.16695023  0.03867700    -0.50300
C151        C  0.16370217  0.14491415  0.05563407     0.75200
O152        O  0.16961352  0.88452502  0.06484233    -0.69700
O153        O  0.20431796  0.81783358  0.03436967    -0.48300
C154        C  0.17939795  0.83039214  0.05735090     0.76600
O155        O  0.30740971  0.10738700  0.07287187    -0.65000
O156        O  0.27366303  0.17751941  0.04474343    -0.52200
C157        C  0.29868037  0.16246783  0.06663126     0.75000
Zr158      Zr  0.29044319  0.00367844  0.05415780     2.77500
O159        O  0.28023832  0.99465105  0.11913072    -0.95700
O160        O  0.35552250  0.01198426  0.06207981    -0.76600
Zr161      Zr  0.18462180  0.99058476  0.05095776     2.70100
O162        O  0.19049316  0.99639258  0.11658930    -0.77800
O163        O  0.11950891  0.97670869  0.05800072    -0.96900
Zr164      Zr  0.23619308  0.11835077  0.00258022     2.21500
Zr165      Zr  0.24277556  0.88255585  0.99533415     2.11100
O166        O  0.23912600  0.93712706  0.05142849    -2.45600
O167        O  0.23606045  0.05724058  0.05585431    -0.77600
O168        O  0.29457087  0.95006585  0.99837497    -0.69800
O169        O  0.18357259  0.05261317  0.99859873    -2.30800
O170        O  0.29145194  0.06694563  0.00242064    -2.27000
O171        O  0.18723558  0.93408056  0.99613778    -0.71600
H172        H  0.24644137  0.90540364  0.42241275     0.80400
H173        H  0.16189014  0.07521643  0.99684150     0.81500
H174        H  0.23949807  0.90981712  0.07179081     0.83700
H175        H  0.31200113  0.09508719  0.00365352     0.81400
H176        H  0.11563471  0.99673604  0.45527842     0.44400
H177        H  0.11204691  0.94742104  0.03874522     0.43400
H178        H  0.16547904  0.99957388  0.12556757     0.43000
H179        H  0.30471524  0.99357896  0.12966510     0.41000
H180        H  0.36430124  0.03641818  0.04119303     0.44100
H181        H  0.36804881  0.04521578  0.46038681     0.38900
H182        H  0.31849722  0.99121919  0.37081488     0.45000
H183        H  0.17571016  0.97666991  0.36803443     0.41400
H184        H  0.27131423  0.03458224  0.12663749     0.46300
H185        H  0.36866307  0.02395352  0.41982462     0.45100
H186        H  0.20206777  0.03327320  0.37309784     0.45200
H187        H  0.11592924  0.95409480  0.08092842     0.45600
C188        C  0.12034666  0.74015787  0.36354459    -0.00500
O189        O  0.42525939  0.12228725  0.19276407    -0.73300
O190        O  0.45764495  0.19869236  0.22133008    -0.52200
C191        C  0.43250765  0.17875042  0.19983871     0.80400
O192        O  0.44793598  0.92805176  0.34180572    -0.57900
O193        O  0.46737178  0.85542532  0.30272305    -0.50900
C194        C  0.45114813  0.87273429  0.33183461     0.72400
O195        O  0.43838609  0.12843575  0.33005362    -0.72500
O196        O  0.46723849  0.20348496  0.29773342    -0.53000
C197        C  0.44437037  0.18449753  0.32153927     0.78400
O198        O  0.43162160  0.91814297  0.18704188    -0.57600
O199        O  0.46330524  0.84928315  0.21865319    -0.50700
C200        C  0.44015201  0.86320426  0.19434591     0.75000
Zr201      Zr  0.44568308  0.02222278  0.20875075     2.54700
O202        O  0.38127935  0.01303925  0.22132594    -0.78200
O203        O  0.43754855  0.02282994  0.14326001    -0.91600
Zr204      Zr  0.45762179  0.02717636  0.31510292     2.64700
O205        O  0.39245787  0.01266077  0.32052112    -0.96600
O206        O  0.46505201  0.03997611  0.38026998    -0.78600
O207        O  0.45056917  0.08399444  0.26159049    -0.82000
O208        O  0.45034389  0.96484282  0.26264765    -2.16700
O209        O  0.06647246  0.92276566  0.16917137    -0.65400
O210        O  0.04614369  0.84632114  0.20645623    -0.49900
C211        C  0.06233240  0.86634538  0.17774374     0.73400
O212        O  0.07046245  0.12657263  0.32055320    -0.58300
O213        O  0.03807009  0.19520715  0.28953969    -0.50300
C214        C  0.06150216  0.18110622  0.31358906     0.75200
O215        O  0.08233522  0.92327921  0.31487129    -0.69700
O216        O  0.04946313  0.84539359  0.28837886    -0.48300
C217        C  0.07568094  0.86648026  0.30803052     0.76600
O218        O  0.06943398  0.12771194  0.17721502    -0.65000
O219        O  0.03650939  0.19651569  0.20793421    -0.52200
C220        C  0.05961805  0.18229239  0.18380131     0.75000
Zr221      Zr  0.05834305  0.02246639  0.19661267     2.77500
O222        O  0.12252457  0.02099607  0.20998713    -0.95700
O223        O  0.07334322  0.03210992  0.13262225    -0.76600
Zr224      Zr  0.05661759  0.02225335  0.30272734     2.70100
O225        O  0.12191506  0.03586143  0.30670576    -0.77800
O226        O  0.05214084  0.01855317  0.36853982    -0.96900
Zr227      Zr  0.00008466  0.13361007  0.24793391     2.21500
Zr228      Zr  0.50438705  0.91036164  0.25715270     2.11100
O229        O  0.06007848  0.96262863  0.24941002    -2.45600
O230        O  0.05620467  0.08309183  0.24957593    -0.77600
O231        O  0.49927270  0.96895975  0.20328197    -0.69800
O232        O  0.00212497  0.07585211  0.30250127    -2.30800
O233        O  0.00330195  0.07254436  0.19437836    -2.27000
O234        O  0.51070135  0.97136736  0.31046059    -0.71600
H235        H  0.42962232  0.93735355  0.26525782     0.80400
H236        H  0.00114281  0.10198674  0.32354150     0.81500
H237        H  0.08173900  0.93975644  0.24859696     0.83700
H238        H  0.00298539  0.09686946  0.17271191     0.81400
H239        H  0.49122881  0.03638309  0.38437559     0.44400
H240        H  0.05230845  0.97484466  0.37456034     0.43400
H241        H  0.12801151  0.07123169  0.29112513     0.43000
H242        H  0.13067593  0.98353157  0.19810058     0.41000
H243        H  0.04976624  0.03557758  0.12044434     0.44100
H244        H  0.45189966  0.05879066  0.13475020     0.38900
H245        H  0.37670894  0.96995166  0.22794028     0.45000
H246        H  0.38800896  0.00958222  0.34692582     0.41400
H247        H  0.13346226  0.05444814  0.19536684     0.46300
H248        H  0.41214311  0.03354552  0.13967488     0.45100
H249        H  0.38264377  0.05212110  0.31365253     0.45200
H250        H  0.07571933  0.03535021  0.37722068     0.45600
C251        C  0.37335959  0.77577738  0.12755713    -0.00500
C252        C  0.11965856  0.26769343  0.11230567    -0.00500
C253        C  0.37389912  0.24642817  0.12347175    -0.00500
C254        C  0.11837861  0.74452782  0.12921864    -0.00500
C255        C  0.12696065  0.26266909  0.38320347    -0.00500
C256        C  0.37655923  0.76139235  0.36751437    -0.00500
C257        C  0.07961623  0.23029275  0.33545653    -0.14500
C258        C  0.10526924  0.21680787  0.35980417    -0.29600
H259        H  0.07225647  0.27705256  0.33168879     0.14600
H260        H  0.11255436  0.16968276  0.36193761     0.15100
C261        C  0.09941895  0.22005073  0.13532813    -0.14500
C262        C  0.07576386  0.23210050  0.16168929    -0.29600
H263        H  0.10648383  0.17302079  0.13164193     0.14600
H264        H  0.06852143  0.27859700  0.16703686     0.15100
C265        C  0.43304242  0.82762432  0.35574265    -0.14500
C266        C  0.40533720  0.79267995  0.34326903    -0.29600
H267        H  0.43627339  0.83409527  0.38469933     0.14600
H268        H  0.40113551  0.79207685  0.31406374     0.15100
C269        C  0.07616457  0.82285017  0.15110874    -0.14500
C270        C  0.09869163  0.77831535  0.15934535    -0.29600
H271        H  0.07177319  0.83337444  0.12274653     0.14600
H272        H  0.10473095  0.76957958  0.18761561     0.15100
C273        C  0.42133670  0.81219546  0.17403511    -0.14500
C274        C  0.40028173  0.82225533  0.14494976    -0.29600
H275        H  0.42305285  0.76636333  0.18438874     0.14600
H276        H  0.39999621  0.86869253  0.13508507     0.15100
C277        C  0.39972494  0.21110143  0.14672078    -0.14500
C278        C  0.41021683  0.22310404  0.18100686    -0.29600
H279        H  0.41115225  0.17204381  0.13332659     0.14600
H280        H  0.40278852  0.26440594  0.19479635     0.15100
C281        C  0.09214117  0.77412841  0.34203694    -0.14500
C282        C  0.10167024  0.82393027  0.32258302    -0.29600
H283        H  0.06370514  0.76135343  0.34493587     0.14600
H284        H  0.12995168  0.83845358  0.32126394     0.15100
C285        C  0.32021537  0.21205004  0.08460960    -0.14500
C286        C  0.34710353  0.19947797  0.10749437    -0.29600
H287        H  0.31555857  0.25884768  0.07744771     0.14600
H288        H  0.35046871  0.15218573  0.11465229     0.15100
C289        C  0.14727034  0.23550173  0.08947923    -0.14500
C290        C  0.13735150  0.18704914  0.06911792    -0.29600
H291        H  0.17581566  0.24740322  0.09265524     0.14600
H292        H  0.10903955  0.17285079  0.06729276     0.15100
C293        C  0.16061679  0.77965961  0.07731211    -0.14500
C294        C  0.13938673  0.79154702  0.10610986    -0.29600
H295        H  0.16441040  0.73304478  0.06890534     0.14600
H296        H  0.13763062  0.83874476  0.11440410     0.15100
C297        C  0.35901584  0.80876484  0.39170856    -0.14500
C298        C  0.33216416  0.79499418  0.41534646    -0.29600
H299        H  0.36761127  0.85614032  0.38849414     0.14600
H300        H  0.32364609  0.74770871  0.41906733     0.15100
C301        C  0.15575115  0.22903659  0.40390113    -0.14500
C302        C  0.14645152  0.18116578  0.42488642    -0.29600
H303        H  0.18416206  0.24077245  0.39964755     0.14600
H304        H  0.11810102  0.16769086  0.42752340     0.15100
C305        C  0.33437521  0.80308570  0.07172327    -0.14500
C306        C  0.34748307  0.81355552  0.10537044    -0.29600
H307        H  0.34046733  0.76183642  0.05713693     0.14600
H308        H  0.33742738  0.85267301  0.11984054     0.15100
C309        C  0.14091231  0.78647795  0.38765498    -0.14500
C310        C  0.16669596  0.77415429  0.41190972    -0.29600
H311        H  0.13300117  0.83331943  0.38584003     0.14600
H312        H  0.17472770  0.72774133  0.41565303     0.15100
C313        C  0.42203001  0.22974320  0.33932750    -0.14500
C314        C  0.39327441  0.21128267  0.35915898    -0.29600
H315        H  0.42735728  0.27768239  0.33403767     0.14600
H316        H  0.38874495  0.16274601  0.36346494     0.15100
C317        C  0.32441457  0.21064597  0.42443921    -0.14500
C318        C  0.33568769  0.21054630  0.38993363    -0.29600
H319        H  0.33183985  0.24771031  0.44274206     0.14600
H320        H  0.32537798  0.17408325  0.37231122     0.15100
C321        C  0.06082645  0.29985549  0.08378669    -0.14500
C322        C  0.09672694  0.30403941  0.08702202    -0.29600
H323        H  0.04495717  0.26264737  0.09562559     0.14600
H324        H  0.11115305  0.33982083  0.07196416     0.15100
C325        C  0.08981308  0.70614284  0.10861904    -0.14500
C326        C  0.07860658  0.71293459  0.07419512    -0.29600
H327        H  0.07769167  0.66843956  0.12390447     0.14600
H328        H  0.08699149  0.75254535  0.05853223     0.15100
C329        C  0.39286284  0.72552070  0.10662721    -0.14500
C330        C  0.41481157  0.73313161  0.07770786    -0.29600
H331        H  0.38904162  0.67932620  0.11652125     0.14600
H332        H  0.42023958  0.77861876  0.06737162     0.15100
C333        C  0.07795939  0.70243458  0.41319187    -0.14500
C334        C  0.10197252  0.69105876  0.38695928    -0.29600
H335        H  0.07118284  0.74908059  0.41883341     0.14600
H336        H  0.10842384  0.64396946  0.38194563     0.15100
C337        C  0.41425020  0.71732341  0.41816505    -0.14500
C338        C  0.39192728  0.70948298  0.38979212    -0.29600
H339        H  0.42199871  0.76300700  0.42692789     0.14600
H340        H  0.38353136  0.66306344  0.38283067     0.15100
C341        C  0.06946009  0.28844953  0.41779392    -0.14500
C342        C  0.10484312  0.29674360  0.41080668    -0.29600
H343        H  0.05404282  0.24931556  0.40743807     0.14600
H344        H  0.11928116  0.33389231  0.42482548     0.15100
C345        C  0.39627877  0.27679063  0.09359145    -0.14500
C346        C  0.42066145  0.32120469  0.10223913    -0.29600
H347        H  0.39032896  0.26691316  0.06527086     0.14600
H348        H  0.42503472  0.33282134  0.13060717     0.15100
C349        C  0.41328305  0.29677647  0.41671038    -0.14500
C350        C  0.38030677  0.29845172  0.40205572    -0.29600
H351        H  0.42968364  0.25753960  0.41284595     0.14600
H352        H  0.36345542  0.33604316  0.40929042     0.15100
C353        C  0.35647652  0.69160323  0.31784207    -0.14500
C354        C  0.34771573  0.73334654  0.34253991    -0.29600
H355        H  0.38448326  0.67940716  0.31526853     0.14600
H356        H  0.31950337  0.74345193  0.34639764     0.15100
C357        C  0.14471551  0.31083044  0.35908518    -0.14500
C358        C  0.16716576  0.29803298  0.33182287    -0.29600
H359        H  0.13901635  0.35819782  0.36426401     0.14600
H360        H  0.17283505  0.25105112  0.32571488     0.15100
C361        C  0.32880426  0.28657956  0.16889345    -0.14500
C362        C  0.35399171  0.29629080  0.14330366    -0.29600
H363        H  0.32207089  0.24052877  0.17762875     0.14600
H364        H  0.35911127  0.34288012  0.13456582     0.15100
C365        C  0.17055928  0.71296947  0.16967741    -0.14500
C366        C  0.14414865  0.69944394  0.14543983    -0.29600
H367        H  0.17585055  0.75978007  0.17805179     0.14600
H368        H  0.13995219  0.65205270  0.13755540     0.15100
C369        C  0.32581500  0.69994828  0.14745153    -0.14500
C370        C  0.35020686  0.74415229  0.15679427    -0.29600
H371        H  0.32198641  0.68921674  0.11889399     0.14600
H372        H  0.35544676  0.75311391  0.18533231     0.15100
C373        C  0.31819363  0.28793674  0.32966285    -0.14500
C374        C  0.35155236  0.29160930  0.34353879    -0.29600
H375        H  0.29953093  0.25044080  0.33606133     0.14600
H376        H  0.36986158  0.32792504  0.33402878     0.15100
C377        C  0.14349952  0.70637509  0.33645804    -0.14500
C378        C  0.17952359  0.71139692  0.33211099    -0.29600
H379        H  0.12903623  0.67119665  0.32080541     0.14600
H380        H  0.19550376  0.74806249  0.34455117     0.15100
C381        C  0.16268900  0.29931006  0.16180162    -0.14500
C382        C  0.13851133  0.31393733  0.13678185    -0.29600
H383        H  0.16913181  0.25210819  0.16577676     0.14600
H384        H  0.13230195  0.36152030  0.13361975     0.15100
O385        O  0.17890131  0.39712959  0.81983841    -0.73300
O386        O  0.20897841  0.32957299  0.78545202    -0.52200
C387        C  0.18580157  0.34300177  0.80985912     0.80400
O388        O  0.17898314  0.61256339  0.68481894    -0.57900
O389        O  0.20759666  0.68461527  0.72010484    -0.50900
C390        C  0.18550498  0.66804969  0.69477383     0.72400
O391        O  0.18152984  0.40813891  0.67712262    -0.72500
O392        O  0.21317519  0.33710857  0.70680859    -0.53000
C393        C  0.19035794  0.35302224  0.68298125     0.78400
O394        O  0.18336318  0.59595569  0.83488515    -0.57600
O395        O  0.20666870  0.67479696  0.80132126    -0.50700
C396        C  0.18751954  0.65234631  0.82743950     0.75000
Zr397      Zr  0.19712971  0.50075944  0.80744828     2.54700
O398        O  0.13170381  0.50395618  0.80486490    -0.78200
O399        O  0.19491122  0.48848946  0.87303207    -0.91600
Zr400      Zr  0.19592478  0.51020331  0.70036096     2.64700
O401        O  0.13037598  0.50199374  0.70258946    -0.96600
O402        O  0.19570579  0.51846502  0.63462006    -0.78600
O403        O  0.19512744  0.44646480  0.75188905    -0.82000
O404        O  0.19402235  0.56427693  0.75619508    -2.16700
O405        O  0.32353853  0.61510936  0.82615034    -0.65400
O406        O  0.28981995  0.68473389  0.79723235    -0.49900
C407        C  0.31507234  0.67024838  0.81908648     0.73400
O408        O  0.32804217  0.42225276  0.68992538    -0.58300
O409        O  0.29111416  0.34432048  0.71014493    -0.50300
C410        C  0.31915722  0.36554654  0.69354812     0.75200
O411        O  0.31403003  0.62826160  0.68485712    -0.69700
O412        O  0.27986078  0.69339664  0.71732650    -0.48300
C413        C  0.30311018  0.68157102  0.69290499     0.76600
O414        O  0.32146484  0.40627194  0.81946320    -0.65000
O415        O  0.28897732  0.33588037  0.78609924    -0.52200
C416        C  0.31297364  0.35097497  0.80967268     0.75000
Zr417      Zr  0.30392429  0.51128180  0.80733558     2.77500
O418        O  0.36948467  0.51144292  0.80418731    -0.95700
O419        O  0.30293173  0.50761174  0.87321007    -0.76600
Zr420      Zr  0.30265776  0.52145529  0.70074410     2.70100
O421        O  0.36791886  0.53759559  0.69852890    -0.77800
O422        O  0.29953790  0.51631876  0.63487786    -0.96900
Zr423      Zr  0.24988716  0.39445720  0.74963987     2.21500
Zr424      Zr  0.24731648  0.62782330  0.75864090     2.11100
O425        O  0.30279271  0.57591579  0.75604412    -2.45600
O426        O  0.30367726  0.45730454  0.75182416    -0.77600
O427        O  0.24964865  0.56497440  0.81083337    -0.69800
O428        O  0.25017016  0.45707758  0.69707204    -2.30800
O429        O  0.25093964  0.44704351  0.80637071    -2.27000
O430        O  0.24842838  0.57430893  0.70245384    -0.71600
H431        H  0.17265561  0.58785911  0.75744738     0.80400
H432        H  0.25108362  0.43308789  0.67509447     0.81500
H433        H  0.32334523  0.60414057  0.75614503     0.83700
H434        H  0.25107179  0.41901003  0.82639228     0.81400
H435        H  0.22050364  0.53301790  0.62840961     0.44400
H436        H  0.31822796  0.54630644  0.62649784     0.43400
H437        H  0.37254759  0.56413564  0.67733257     0.43000
H438        H  0.37624486  0.54475510  0.78730667     0.41000
H439        H  0.32856514  0.50462709  0.88004744     0.44100
H440        H  0.20971484  0.45310522  0.87812775     0.38900
H441        H  0.12423139  0.46965392  0.78879297     0.45000
H442        H  0.12314356  0.48918219  0.67780247     0.41400
H443        H  0.37775503  0.52640117  0.82823314     0.46300
H444        H  0.16983921  0.47416600  0.87827075     0.45100
H445        H  0.12490453  0.46583658  0.71772925     0.45200
H446        H  0.30916017  0.47641671  0.62838200     0.45600
O447        O  0.43019855  0.39909631  0.93109594    -0.73300
O448        O  0.45996068  0.33200324  0.96576056    -0.52200
C449        C  0.43840218  0.34490344  0.94014106     0.80400
O450        O  0.06083125  0.60670967  0.92553809    -0.57900
O451        O  0.02913545  0.67774141  0.95580919    -0.50900
C452        C  0.05269281  0.66208312  0.93244733     0.72400
O453        O  0.05981654  0.40126479  0.93170138    -0.72500
O454        O  0.02615434  0.32985051  0.96250336    -0.53000
C455        C  0.05132371  0.34593223  0.94016991     0.78400
O456        O  0.43678545  0.60076784  0.91849158    -0.57600
O457        O  0.46188962  0.67806271  0.95283047    -0.50700
C458        C  0.44418354  0.65698742  0.92519742     0.75000
Zr459      Zr  0.44459160  0.50466993  0.94795014     2.54700
O460        O  0.44287414  0.49327595  0.88232238    -0.78200
O461        O  0.37923143  0.50828192  0.95140506    -0.91600
Zr462      Zr  0.04247620  0.50390126  0.94591415     2.64700
O463        O  0.04584801  0.49633147  0.88013546    -0.96600
O464        O  0.10785793  0.51097906  0.95117191    -0.78600
O465        O  0.49764340  0.44946044  0.95131030    -0.82000
O466        O  0.49862080  0.56565497  0.94847651    -2.16700
O467        O  0.41742204  0.61283405  0.57464244    -0.65400
O468        O  0.45135337  0.68254307  0.54256611    -0.49900
C469        C  0.42718507  0.66822778  0.56608662     0.73400
O470        O  0.05939914  0.39628096  0.57134788    -0.58300
O471        O  0.02572187  0.32342542  0.54112804    -0.50300
C472        C  0.05008639  0.34057381  0.56401130     0.75200
O473        O  0.06638741  0.60301123  0.56815332    -0.69700
O474        O  0.03901426  0.67260848  0.53296408    -0.48300
C475        C  0.06147325  0.65777600  0.55746014     0.76600
O476        O  0.41780933  0.40069080  0.57602035    -0.65000
O477        O  0.44890231  0.33239151  0.54270104    -0.52200
C478        C  0.42601395  0.34571383  0.56727883     0.75000
Zr479      Zr  0.43337159  0.50717889  0.55786444     2.77500
O480        O  0.43008965  0.50569581  0.62383067    -0.95700
O481        O  0.36802469  0.50163494  0.55211201    -0.76600
Zr482      Zr  0.04483241  0.49921695  0.55351341     2.70100
O483        O  0.04335695  0.50312744  0.61945104    -0.77800
O484        O  0.11025236  0.49391139  0.55253570    -0.96900
Zr485      Zr  0.48807965  0.39326210  0.50402439     2.21500
Zr486      Zr  0.48871287  0.62424270  0.50364649     2.11100
O487        O  0.48770794  0.56817729  0.55888904    -2.45600
O488        O  0.48700596  0.45125313  0.55867026    -0.77600
O489        O  0.43327108  0.56604558  0.50397329    -0.69800
O490        O  0.04481719  0.43783919  0.50057406    -2.30800
O491        O  0.43338414  0.44761502  0.50388541    -2.27000
O492        O  0.04816347  0.55630384  0.49928027    -0.71600
H493        H  0.50082433  0.58848306  0.92631014     0.80400
H494        H  0.06504018  0.41152812  0.50108238     0.81500
H495        H  0.48797953  0.59501903  0.57970307     0.83700
H496        H  0.41263373  0.41985009  0.50369664     0.81400
H497        H  0.11309169  0.49027301  0.97420540     0.44400
H498        H  0.11879541  0.53041247  0.53903426     0.43400
H499        H  0.06863287  0.49773399  0.62692102     0.43000
H500        H  0.43497799  0.54825730  0.63162879     0.41000
H501        H  0.35907489  0.49706993  0.57726312     0.44100
H502        H  0.37044839  0.46553817  0.94856403     0.38900
H503        H  0.46653513  0.47677879  0.87599918     0.45000
H504        H  0.03103038  0.52948305  0.87115164     0.41400
H505        H  0.40424290  0.49762067  0.62932490     0.46300
H506        H  0.37229110  0.52812245  0.92859469     0.45100
H507        H  0.07096131  0.50943638  0.87414944     0.45200
H508        H  0.11784780  0.50193027  0.57787153     0.45600
C509        C  0.36690129  0.26170229  0.88042291    -0.00500
O510        O  0.30839879  0.12001689  0.93251740    -0.73300
O511        O  0.27805738  0.18420055  0.96932131    -0.52200
C512        C  0.30133078  0.17324343  0.94458618     0.80400
O513        O  0.16901894  0.89433236  0.92617851    -0.57900
O514        O  0.20125615  0.82438010  0.95625534    -0.50900
C515        C  0.17674676  0.83947531  0.93369996     0.72400
O516        O  0.17840684  0.09679133  0.92063620    -0.72500
O517        O  0.20042663  0.17144403  0.95869309    -0.53000
C518        C  0.18373202  0.15244663  0.93005371     0.78400
O519        O  0.30998839  0.91956188  0.92035066    -0.57600
O520        O  0.28294935  0.83902952  0.95006386    -0.50700
C521        C  0.30373576  0.86275561  0.92539816     0.75000
Zr522      Zr  0.29300595  0.01407050  0.94675127     2.54700
O523        O  0.29346410  0.02334604  0.88103892    -0.78200
O524        O  0.35844353  0.02033831  0.95162796    -0.91600
Zr525      Zr  0.18739348  0.99678355  0.94433824     2.64700
O526        O  0.18403685  0.99593318  0.87836872    -0.96600
O527        O  0.12212484  0.99983941  0.94996451    -0.78600
O528        O  0.23847238  0.06458274  0.94664338    -0.81600
O529        O  0.24194030  0.94586557  0.94290195    -2.16700
O530        O  0.31733047  0.89681826  0.56818729    -0.65400
O531        O  0.28841414  0.82100006  0.53577353    -0.49900
C532        C  0.31161135  0.84042407  0.55936048     0.73400
O533        O  0.16419793  0.08208005  0.56407813    -0.58300
O534        O  0.19737065  0.15877731  0.53715349    -0.50300
C535        C  0.17121019  0.13848332  0.55702159     0.75200
O536        O  0.17428829  0.87965723  0.56951815    -0.69700
O537        O  0.20619251  0.81054252  0.53801911    -0.48300
C538        C  0.18253205  0.82487351  0.56196881     0.76600
O539        O  0.30979239  0.10352365  0.57009740    -0.65000
O540        O  0.27568347  0.17039364  0.53966895    -0.52200
C541        C  0.29995700  0.15781141  0.56287801     0.75000
Zr542      Zr  0.29578610  0.99746746  0.55251995     2.77500
O543        O  0.29397866  0.99833042  0.61854106    -0.95700
O544        O  0.36130119  0.00844753  0.55162086    -0.76600
Zr545      Zr  0.18930823  0.98317245  0.55138443     2.70100
O546        O  0.19185431  0.99034297  0.61719011    -0.77800
O547        O  0.12384860  0.96984497  0.55207353    -0.96900
Zr548      Zr  0.23959788  0.10704284  0.49890307     2.21500
Zr549      Zr  0.24571944  0.87233472  0.49797620     2.11100
O550        O  0.24401808  0.93084635  0.55273634    -2.45600
O551        O  0.24093511  0.04963991  0.55346539    -0.77600
O552        O  0.29812381  0.93893725  0.49843687    -0.69800
O553        O  0.18745557  0.04072340  0.49776553    -2.30800
O554        O  0.29536626  0.05633827  0.49907138    -2.27000
O555        O  0.19038841  0.92411601  0.49732592    -0.71600
H556        H  0.24221423  0.92231716  0.92078997     0.80400
H557        H  0.16548355  0.06273468  0.49765646     0.81500
H558        H  0.24458242  0.90503201  0.57376656     0.83700
H559        H  0.31565434  0.08509906  0.49959375     0.81400
H560        H  0.11265898  0.97701764  0.92861391     0.44400
H561        H  0.11849340  0.93556475  0.53522775     0.43400
H562        H  0.16667251  0.99697048  0.62466963     0.43000
H563        H  0.29182493  0.95508984  0.62563816     0.41000
H564        H  0.36838506  0.00933653  0.57747628     0.44100
H565        H  0.36701831  0.02365682  0.92626532     0.38900
H566        H  0.27266848  0.04856580  0.87554900     0.45000
H567        H  0.19601506  0.95865996  0.87059686     0.41400
H568        H  0.31863841  0.01172736  0.62600914     0.46300
H569        H  0.36516933  0.97933223  0.95933879     0.45100
H570        H  0.15819767  0.98789047  0.87283820     0.45200
H571        H  0.11788219  0.95351881  0.57639812     0.45600
C572        C  0.11367402  0.75332396  0.86397278    -0.00500
O573        O  0.42908446  0.12090458  0.68267740    -0.73300
O574        O  0.46120160  0.19728227  0.71167481    -0.52200
C575        C  0.43767607  0.17755934  0.68850761     0.80400
O576        O  0.43089141  0.91803444  0.82766601    -0.57900
O577        O  0.46456590  0.85021297  0.79674480    -0.50900
C578        C  0.44006671  0.86340225  0.81995978     0.72400
O579        O  0.42974674  0.12474793  0.82676605    -0.72500
O580        O  0.45996912  0.19863437  0.79429961    -0.53000
C581        C  0.43690882  0.18088207  0.81846931     0.78400
O582        O  0.43385504  0.91272505  0.68353987    -0.57600
O583        O  0.46531398  0.84555607  0.71674297    -0.50700
C584        C  0.44259760  0.85823741  0.69200031     0.75000
Zr585      Zr  0.44553227  0.01931209  0.70263733     2.54700
O586        O  0.38090563  0.01182712  0.71386527    -0.78200
O587        O  0.43647523  0.01321593  0.63731085    -0.91600
Zr588      Zr  0.44846280  0.02269757  0.80939069     2.64700
O589        O  0.38276818  0.02017445  0.80872965    -0.96600
O590        O  0.45118471  0.02293462  0.87527499    -0.78600
O591        O  0.44610808  0.08121142  0.75553577    -0.82000
O592        O  0.44753543  0.96127632  0.75635847    -2.16700
O593        O  0.06403554  0.92749600  0.66552673    -0.65400
O594        O  0.03946883  0.85178555  0.70090683    -0.49900
C595        C  0.05815268  0.87115155  0.67363181     0.73400
O596        O  0.07319046  0.12810407  0.81821398    -0.58300
O597        O  0.04229465  0.19977675  0.78823393    -0.50300
C598        C  0.06539148  0.18353698  0.81175707     0.75200
O599        O  0.07716578  0.92658713  0.81003305    -0.69700
O600        O  0.04314676  0.85178483  0.78161049    -0.48300
C601        C  0.06934203  0.87085896  0.80235325     0.76600
O602        O  0.07212804  0.13228274  0.67461353    -0.65000
O603        O  0.04273386  0.20285723  0.70754906    -0.52200
C604        C  0.06520870  0.18747699  0.68295048     0.75000
Zr605      Zr  0.05500805  0.02855781  0.69137412     2.77500
O606        O  0.11994240  0.02357282  0.69944266    -0.95700
O607        O  0.06097744  0.03633466  0.62584105    -0.76600
Zr608      Zr  0.05466656  0.02574700  0.79817631     2.70100
O609        O  0.12014662  0.03163083  0.80216665    -0.77800
O610        O  0.04735822  0.01961632  0.86367018    -0.96900
Zr611      Zr  0.00323759  0.14269513  0.74703295     2.21500
Zr612      Zr  0.50303728  0.90951002  0.75543892     2.11100
O613        O  0.05503456  0.96762395  0.74362986    -2.45600
O614        O  0.05700678  0.08702463  0.74564820    -0.77600
O615        O  0.49983428  0.96686577  0.70086919    -0.69800
O616        O  0.00185296  0.08184520  0.80036607    -2.30800
O617        O  0.00243686  0.08626262  0.69154923    -2.27000
O618        O  0.50302415  0.96906170  0.80952023    -0.71600
H619        H  0.42711306  0.93279551  0.75684565     0.80400
H620        H  0.00175908  0.10682422  0.82199092     0.81500
H621        H  0.07604332  0.94310304  0.74242193     0.83700
H622        H  0.00261997  0.11262538  0.67068207     0.81400
H623        H  0.42635063  0.01132926  0.88309725     0.44400
H624        H  0.04174796  0.97613953  0.86853923     0.43400
H625        H  0.12846383  0.01991387  0.77769285     0.43000
H626        H  0.12678339  0.98736340  0.68541477     0.41000
H627        H  0.03994405  0.01250378  0.61616022     0.44100
H628        H  0.45466551  0.04236400  0.62706278     0.38900
H629        H  0.37003398  0.00611287  0.68954750     0.45000
H630        H  0.37558350  0.98035448  0.79788600     0.41400
H631        H  0.13028157  0.05839282  0.68554881     0.46300
H632        H  0.41306249  0.03200596  0.63305313     0.45100
H633        H  0.37563461  0.01662490  0.83452280     0.45200
H634        H  0.07198188  0.02708969  0.87339175     0.45600
C635        C  0.37177855  0.76742842  0.63330570    -0.00500
C636        C  0.12955195  0.26715386  0.61266488    -0.00500
C637        C  0.36174921  0.24840644  0.63146579    -0.00500
C638        C  0.11634437  0.74536402  0.63202871    -0.00500
C639        C  0.12542315  0.26780311  0.88393956    -0.00500
C640        C  0.37783891  0.76555790  0.88611782    -0.00500
C641        C  0.08412269  0.23230008  0.83292656    -0.14500
C642        C  0.10477437  0.21960788  0.86156712    -0.29600
H643        H  0.08089822  0.27925441  0.82513153     0.14600
H644        H  0.10670874  0.17239184  0.86952287     0.15100
C645        C  0.10961966  0.22222963  0.63775796    -0.14500
C646        C  0.08405096  0.23624654  0.66196172    -0.29600
H647        H  0.11748119  0.17527068  0.63646949     0.14600
H648        H  0.07631626  0.28298004  0.66531922     0.15100
C649        C  0.42153011  0.81117902  0.83884948    -0.14500
C650        C  0.39517605  0.81778191  0.86368812    -0.29600
H651        H  0.43014335  0.76603096  0.83218579     0.14600
H652        H  0.38668602  0.86353815  0.86934879     0.15100
C653        C  0.07360707  0.82662898  0.64863716    -0.14500
C654        C  0.09483220  0.78180212  0.65955790    -0.29600
H655        H  0.07156528  0.83606788  0.61984759     0.14600
H656        H  0.09846450  0.77442365  0.68841167     0.15100
C657        C  0.42407179  0.80591616  0.67329582    -0.14500
C658        C  0.40034250  0.81444132  0.64646912    -0.29600
H659        H  0.42737846  0.76069062  0.68402168     0.14600
H660        H  0.39873593  0.86047430  0.63617723     0.15100
C661        C  0.38468428  0.21238350  0.65732466    -0.14500
C662        C  0.41929971  0.22292358  0.66639084    -0.29600
H663        H  0.37073445  0.17332101  0.66975518     0.14600
H664        H  0.43389061  0.26402436  0.65789466     0.15100
C665        C  0.08518323  0.78352021  0.84078123    -0.14500
C666        C  0.09469429  0.82828754  0.81767053    -0.29600
H667        H  0.05674219  0.77154840  0.84456172     0.14600
H668        H  0.12309141  0.84177146  0.81542895     0.15100
C669        C  0.31741573  0.20957934  0.58300998    -0.14500
C670        C  0.34475640  0.20068547  0.60593955    -0.29600
H671        H  0.30698269  0.25467129  0.58008231     0.14600
H672        H  0.35467336  0.15489525  0.60749914     0.15100
C673        C  0.15663103  0.23233014  0.59025434    -0.14500
C674        C  0.14597839  0.18178323  0.57191760    -0.29600
H675        H  0.18520940  0.24490854  0.59174354     0.14600
H676        H  0.11763360  0.16744198  0.57204739     0.15100
C677        C  0.16285881  0.77575446  0.58258384    -0.14500
C678        C  0.13965573  0.79005585  0.60940023    -0.29600
H679        H  0.16672823  0.72853801  0.57556593     0.14600
H680        H  0.13755689  0.83782444  0.61620135     0.15100
C681        C  0.34928032  0.79045971  0.91152080    -0.14500
C682        C  0.32238143  0.82387197  0.90000933    -0.29600
H683        H  0.35188787  0.78527749  0.94072001     0.14600
H684        H  0.32039434  0.83507958  0.87157005     0.15100
C685        C  0.14584104  0.23672383  0.91368717    -0.14500
C686        C  0.17024679  0.19606563  0.90454337    -0.29600
H687        H  0.13916498  0.24395672  0.94205600     0.14600
H688        H  0.17528751  0.18694589  0.87602556     0.15100
C689        C  0.33368858  0.79478239  0.57750195    -0.14500
C690        C  0.34504735  0.80434158  0.61169446    -0.29600
H691        H  0.34037553  0.75392499  0.56283859     0.14600
H692        H  0.33492655  0.84367718  0.62591468     0.15100
C693        C  0.13196433  0.80165131  0.88852448    -0.14500
C694        C  0.15615299  0.79017607  0.91473100    -0.29600
H695        H  0.12579069  0.84872148  0.88361110     0.14600
H696        H  0.16130411  0.74409741  0.92249195     0.15100
C697        C  0.41725508  0.22895958  0.83793172    -0.14500
C698        C  0.38995934  0.21525444  0.86092126    -0.29600
H699        H  0.42459844  0.27625929  0.83261074     0.14600
H700        H  0.38281347  0.16741075  0.86498207     0.15100
C701        C  0.32349862  0.22472705  0.93052076    -0.14500
C702        C  0.33442048  0.22535175  0.89571705    -0.29600
H703        H  0.33349012  0.25843249  0.94991082     0.14600
H704        H  0.32107358  0.19305269  0.87724135     0.15100
C705        C  0.06960787  0.29351064  0.58319245    -0.14500
C706        C  0.10556348  0.30042849  0.58660194    -0.29600
H707        H  0.05456816  0.25560222  0.59528139     0.14600
H708        H  0.11912340  0.33633285  0.57091912     0.15100
C709        C  0.08921354  0.70602866  0.61048956    -0.14500
C710        C  0.08349958  0.70707164  0.57461962    -0.29600
H711        H  0.07419837  0.67163950  0.62609222     0.14600
H712        H  0.09503151  0.74308586  0.55782061     0.15100
C713        C  0.38795797  0.71451368  0.61238202    -0.14500
C714        C  0.41036904  0.72076150  0.58411031    -0.29600
H715        H  0.38176399  0.66843893  0.62166059     0.14600
H716        H  0.41765386  0.76619951  0.57463118     0.15100
C717        C  0.07095473  0.71210481  0.91202675    -0.14500
C718        C  0.09547718  0.70229339  0.88605258    -0.29600
H719        H  0.06368209  0.75838395  0.91806683     0.14600
H720        H  0.10250335  0.65577053  0.88028208     0.15100
C721        C  0.42975376  0.69910951  0.89914787    -0.14500
C722        C  0.40655468  0.73989115  0.91062888    -0.29600
H723        H  0.43034766  0.68590850  0.87079296     0.14600
H724        H  0.40530354  0.74788218  0.93974749     0.15100
C725        C  0.07283289  0.29783511  0.92353966    -0.14500
C726        C  0.09948903  0.31244956  0.89999252    -0.29600
H727        H  0.06791895  0.25088523  0.93155661     0.14600
H728        H  0.10338592  0.35985297  0.89228431     0.15100
C729        C  0.38134246  0.29982155  0.61011959    -0.14500
C730        C  0.40847210  0.29302230  0.58659894    -0.29600
H731        H  0.37195767  0.34564310  0.61363197     0.14600
H732        H  0.41795600  0.24779253  0.58130873     0.15100
C733        C  0.42160540  0.29445498  0.91916792    -0.14500
C734        C  0.38680606  0.29754066  0.91013002    -0.29600
H735        H  0.43805274  0.25796088  0.90966193     0.14600
H736        H  0.37160441  0.33330359  0.92285640     0.15100
C737        C  0.33537927  0.72166260  0.83706063    -0.14500
C738        C  0.36003218  0.71387702  0.86324637    -0.29600
H739        H  0.32920313  0.76718244  0.82880405     0.14600
H740        H  0.36602198  0.66747869  0.87020849     0.15100
C741        C  0.15311004  0.30514359  0.86234347    -0.14500
C742        C  0.16479039  0.29431681  0.82839076    -0.29600
H743        H  0.16443598  0.34498477  0.87648951     0.14600
H744        H  0.15769176  0.25240470  0.81410834     0.15100
C745        C  0.34401950  0.32289813  0.67792466    -0.14500
C746        C  0.33349485  0.27801248  0.65489882    -0.29600
H747        H  0.37257172  0.33504998  0.68048615     0.14600
H748        H  0.30495124  0.26737433  0.65076426     0.15100
C749        C  0.16562228  0.71589677  0.67596924    -0.14500
C750        C  0.14009959  0.70081003  0.65126577    -0.29600
H751        H  0.17098040  0.76325544  0.68310872     0.14600
H752        H  0.13551183  0.65283276  0.64492676     0.15100
C753        C  0.31781814  0.73228252  0.67139602    -0.14500
C754        C  0.35350331  0.73744747  0.66592508    -0.29600
H755        H  0.29899348  0.75943282  0.65672628     0.14600
H756        H  0.37044346  0.70986270  0.68278615     0.15100
C757        C  0.33058281  0.30012097  0.82768651    -0.14500
C758        C  0.35395752  0.31025105  0.85478192    -0.29600
H759        H  0.32181046  0.25388053  0.82087121     0.14600
H760        H  0.36219731  0.35732102  0.86045688     0.15100
C761        C  0.14167635  0.72635410  0.83882494    -0.14500
C762        C  0.16798597  0.69214854  0.85132640    -0.29600
H763        H  0.13873948  0.73074362  0.80962638     0.14600
H764        H  0.16912939  0.68114853  0.87977382     0.15100
C765        C  0.17322705  0.30411517  0.66083404    -0.14500
C766        C  0.14881469  0.31603378  0.63532341    -0.29600
H767        H  0.18041348  0.25750879  0.66565984     0.14600
H768        H  0.14193819  0.36306235  0.63110445     0.15100
O769        O  0.68475345  0.41405574  0.32852727    -0.73300
O770        O  0.71430836  0.34627583  0.29337564    -0.52200
C771        C  0.69131252  0.35967124  0.31796749     0.80400
O772        O  0.68024036  0.62372586  0.18974030    -0.57900
O773        O  0.70998358  0.69697330  0.22318624    -0.50900
C774        C  0.68700384  0.67955298  0.19895291     0.72400
O775        O  0.68031120  0.41808139  0.18952345    -0.72500
O776        O  0.71564691  0.34865256  0.21613656    -0.53000
C777        C  0.69025877  0.36334254  0.19470361     0.78400
O778        O  0.68484047  0.62016205  0.33310714    -0.57600
O779        O  0.71664195  0.69521602  0.30309571    -0.50700
C780        C  0.69309209  0.67635739  0.32614745     0.75000
Zr781      Zr  0.70368920  0.51897357  0.31505847     2.54700
O782        O  0.63870476  0.51487301  0.32438257    -0.78200
O783        O  0.71533219  0.51457125  0.37985731    -0.91600
Zr784      Zr  0.69686339  0.52201943  0.20790405     2.64700
O785        O  0.63209211  0.51850870  0.21904277    -0.96600
O786        O  0.68843753  0.52063308  0.14250411    -0.78600
O787        O  0.70014606  0.46154755  0.26051475    -0.82000
O788        O  0.69853976  0.57929187  0.26235372    -2.16700
O789        O  0.82575969  0.63429624  0.32603728    -0.65400
O790        O  0.79344180  0.70409250  0.29611630    -0.49900
C791        C  0.81774638  0.68935351  0.31873998     0.73400
O792        O  0.83262118  0.43753740  0.19503576    -0.58300
O793        O  0.79557264  0.35949042  0.21469336    -0.50300
C794        C  0.82396179  0.38094633  0.19855999     0.75200
O795        O  0.81656202  0.63814776  0.18473612    -0.69700
O796        O  0.78500795  0.70621996  0.21747559    -0.48300
C797        C  0.80748040  0.69237725  0.19272385     0.76600
O798        O  0.83479516  0.42883939  0.31562274    -0.65000
O799        O  0.79791434  0.35386241  0.29136215    -0.52200
C800        C  0.82601323  0.37263776  0.30913444     0.75000
Zr801      Zr  0.80970435  0.52944770  0.30872320     2.77500
O802        O  0.87524040  0.54076159  0.30994842    -0.95700
O803        O  0.80783370  0.52009685  0.37443921    -0.76600
Zr804      Zr  0.80328880  0.53331485  0.20172317     2.70100
O805        O  0.86688374  0.55307193  0.18841962    -0.77800
O806        O  0.79286238  0.51889513  0.13705089    -0.96900
Zr807      Zr  0.75474215  0.40861120  0.25594056     2.21500
Zr808      Zr  0.75209230  0.64241430  0.25969151     2.11100
O809        O  0.80716053  0.59043995  0.25601975    -2.45600
O810        O  0.80765184  0.47311913  0.25415635    -0.77600
O811        O  0.75602488  0.58379493  0.31358494    -0.69800
O812        O  0.75095347  0.46845445  0.20234184    -2.30800
O813        O  0.75741631  0.46417852  0.31174465    -2.27000
O814        O  0.74931285  0.58655682  0.20440568    -0.71600
H815        H  0.67735111  0.60329846  0.26384852     0.80400
H816        H  0.75052420  0.44318599  0.18082736     0.81500
H817        H  0.82773910  0.61852377  0.25500036     0.83700
H818        H  0.75895495  0.43705128  0.33212984     0.81400
H819        H  0.71319335  0.52035504  0.13249797     0.44400
H820        H  0.80690658  0.55262545  0.12546137     0.43400
H821        H  0.87789806  0.56280144  0.21227455     0.43000
H822        H  0.88127910  0.57197393  0.29148207     0.41000
H823        H  0.82461281  0.55275477  0.38345184     0.44100
H824        H  0.69126936  0.51723370  0.39123652     0.38900
H825        H  0.62902279  0.49061354  0.30367891     0.45000
H826        H  0.62557208  0.56144516  0.22173093     0.41400
H827        H  0.88100820  0.56084122  0.33341409     0.46300
H828        H  0.72783830  0.55389407  0.38567760     0.45100
H829        H  0.62128819  0.50537934  0.19563572     0.45200
H830        H  0.80605106  0.48212582  0.13063453     0.45600
O831        O  0.92068354  0.38992025  0.42677846    -0.73300
O832        O  0.94941186  0.32044339  0.46064835    -0.52200
C833        C  0.92718648  0.33475292  0.43574105     0.80400
O834        O  0.55801990  0.61462241  0.43298918    -0.57900
O835        O  0.52666219  0.68486788  0.46408515    -0.50900
C836        C  0.54998342  0.66968786  0.44048407     0.72400
O837        O  0.56285177  0.40952541  0.43605562    -0.72500
O838        O  0.53017048  0.33711634  0.46701162    -0.53000
C839        C  0.55529203  0.35383910  0.44470948     0.78400
O840        O  0.93063877  0.59545736  0.42113461    -0.57600
O841        O  0.95881114  0.66908300  0.45591629    -0.50700
C842        C  0.93909966  0.65108561  0.42913675     0.75000
Zr843      Zr  0.93919311  0.49416253  0.44514267     2.54700
O844        O  0.93478983  0.48952046  0.37939340    -0.78200
O845        O  0.87398956  0.50005076  0.45013339    -0.91600
Zr846      Zr  0.54165332  0.51061928  0.45034515     2.64700
O847        O  0.53921894  0.50255878  0.38456996    -0.96600
O848        O  0.60702931  0.52372204  0.44848397    -0.78600
O849        O  0.99159241  0.43602897  0.44526080    -0.82000
O850        O  0.99438075  0.55254505  0.44413857    -2.16700
O851        O  0.91545048  0.61294665  0.06432229    -0.65400
O852        O  0.94998504  0.68139062  0.03193547    -0.49900
C853        C  0.92542380  0.66787633  0.05529802     0.73400
O854        O  0.56259726  0.41727177  0.07929984    -0.58300
O855        O  0.52866496  0.34326941  0.05042536    -0.50300
C856        C  0.55298718  0.36120278  0.07302431     0.75200
O857        O  0.56494569  0.62316852  0.07365955    -0.69700
O858        O  0.53778274  0.69172647  0.03760658    -0.48300
C859        C  0.55959979  0.67759218  0.06297076     0.76600
O860        O  0.91469741  0.40307102  0.07058841    -0.65000
O861        O  0.94465883  0.33141892  0.03880557    -0.52200
C862        C  0.92244149  0.34742860  0.06342053     0.75000
Zr863      Zr  0.93067222  0.50692891  0.04932801     2.77500
O864        O  0.92729692  0.51100096  0.11519424    -0.95700
O865        O  0.86520587  0.50463209  0.04471004    -0.76600
Zr866      Zr  0.54545022  0.51905868  0.06018119     2.70100
O867        O  0.53735351  0.52465436  0.12557785    -0.77800
O868        O  0.61078330  0.51997896  0.06639620    -0.96900
Zr869      Zr  0.98462892  0.38793267  0.99860007     2.21500
Zr870      Zr  0.98906994  0.62090724  0.99569307     2.11100
O871        O  0.98551020  0.56611716  0.05136029    -2.45600
O872        O  0.98289169  0.44794129  0.05253239    -0.77600
O873        O  0.93338013  0.56277735  0.99440856    -0.69800
O874        O  0.54873028  0.45606777  0.00826041    -2.30800
O875        O  0.93088194  0.44397484  0.99661997    -2.27000
O876        O  0.54996583  0.57454774  0.00520952    -0.71600
H877        H  0.99589422  0.57709076  0.42256633     0.80400
H878        H  0.56926211  0.43055666  0.00980414     0.81500
H879        H  0.98558287  0.59360310  0.07186143     0.83700
H880        H  0.90969292  0.41716300  0.99632268     0.81400
H881        H  0.61467809  0.51872377  0.47394634     0.44400
H882        H  0.61980748  0.55313136  0.05038637     0.43400
H883        H  0.52270280  0.48762102  0.13168573     0.43000
H884        H  0.94210813  0.54751050  0.12215719     0.41000
H885        H  0.85992081  0.54006024  0.02948551     0.44100
H886        H  0.87026870  0.53229903  0.46839378     0.38900
H887        H  0.96012459  0.49033406  0.37093968     0.45000
H888        H  0.52112301  0.53193819  0.37721750     0.41400
H889        H  0.90217928  0.52190021  0.12042142     0.46300
H890        H  0.86595159  0.46200132  0.46235494     0.45100
H891        H  0.56254060  0.52086076  0.37623629     0.45200
H892        H  0.61550380  0.53533203  0.09127418     0.45600
C893        C  0.86089491  0.24484627  0.36969563    -0.00500
O894        O  0.81248273  0.10476987  0.43621872    -0.73300
O895        O  0.78189194  0.17407143  0.46926097    -0.52200
C896        C  0.80513670  0.15963620  0.44511833     0.80400
O897        O  0.67173628  0.88884968  0.43451448    -0.57900
O898        O  0.70247730  0.81847886  0.46576407    -0.50900
C899        C  0.67897953  0.83375577  0.44223966     0.72400
O900        O  0.68174931  0.09416136  0.42535941    -0.72500
O901        O  0.70340743  0.16873126  0.46353527    -0.53000
C902        C  0.68669243  0.15022683  0.43484235     0.78400
O903        O  0.81487830  0.89995970  0.43847397    -0.57600
O904        O  0.78331207  0.82482623  0.46835823    -0.50700
C905        C  0.80780756  0.84376893  0.44598361     0.75000
Zr906      Zr  0.79623150  0.00094039  0.45499632     2.54700
O907        O  0.79994948  0.00008296  0.38908174    -0.78200
O908        O  0.86156420  0.00407858  0.46134753    -0.91600
Zr909      Zr  0.69018779  0.99271838  0.45000804     2.64700
O910        O  0.68975211  0.98418099  0.38410937    -0.96600
O911        O  0.62493281  0.00017661  0.45064048    -0.78600
O912        O  0.74295673  0.05609837  0.45172947    -0.81600
O913        O  0.74350172  0.93699801  0.45171372    -2.16700
O914        O  0.81666531  0.90468759  0.07149850    -0.65400
O915        O  0.78495807  0.83130241  0.03967868    -0.49900
C916        C  0.80998267  0.84891949  0.06164068     0.73400
O917        O  0.66532748  0.10090409  0.07164132    -0.58300
O918        O  0.69905855  0.17618856  0.04382953    -0.50300
C919        C  0.67284704  0.15699428  0.06417598     0.75200
O920        O  0.67066781  0.89689583  0.07643519    -0.69700
O921        O  0.70312888  0.82702845  0.04597184    -0.48300
C922        C  0.67923468  0.84190646  0.06939567     0.76600
O923        O  0.81120032  0.11106157  0.08044921    -0.65000
O924        O  0.78015528  0.18052711  0.04847033    -0.52200
C925        C  0.80320435  0.16601979  0.07265629     0.75000
Zr926      Zr  0.79424240  0.00703387  0.06111138     2.77500
O927        O  0.78685265  0.99754946  0.12642128    -0.95700
O928        O  0.85953893  0.01640535  0.06673148    -0.76600
Zr929      Zr  0.68787898  0.00047233  0.05837813     2.70100
O930        O  0.69015577  0.00531454  0.12429824    -0.77800
O931        O  0.62225871  0.99416723  0.05759135    -0.96900
Zr932      Zr  0.74188644  0.12240260  0.00648020     2.21500
Zr933      Zr  0.74214623  0.88642805  0.00518043     2.11100
O934        O  0.74112671  0.94405530  0.06024812    -2.45600
O935        O  0.74095379  0.06376515  0.06083062    -0.77600
O936        O  0.79614965  0.94863208  0.00710187    -0.69800
O937        O  0.68818343  0.05949623  0.00473727    -2.30800
O938        O  0.79611869  0.06699688  0.00781242    -2.27000
O939        O  0.68800747  0.94109820  0.00450442    -0.71600
H940        H  0.74449880  0.91088795  0.43062691     0.80400
H941        H  0.66708090  0.08367353  0.00350965     0.81500
H942        H  0.74105875  0.91779631  0.08107562     0.83700
H943        H  0.81706526  0.09438287  0.00846624     0.81400
H944        H  0.61727189  0.98229588  0.47410169     0.44400
H945        H  0.61603411  0.95893528  0.04174114     0.43400
H946        H  0.70407151  0.96989017  0.13149049     0.43000
H947        H  0.81140428  0.00523735  0.13628067     0.41000
H948        H  0.86817068  0.02536984  0.04186048     0.44100
H949        H  0.86733314  0.04160300  0.47536611     0.38900
H950        H  0.82574959  0.99445540  0.38368128     0.45000
H951        H  0.70515652  0.94966874  0.37845279     0.41400
H952        H  0.77347263  0.03368726  0.13368001     0.46300
H953        H  0.87084241  0.01282626  0.43667976     0.45100
H954        H  0.66499978  0.96924955  0.37795885     0.45200
H955        H  0.61527335  0.98067704  0.08226122     0.45600
C956        C  0.61365956  0.75323169  0.37261971    -0.00500
O957        O  0.93490151  0.10083443  0.17017867    -0.73300
O958        O  0.95909563  0.17944411  0.20399769    -0.52200
C959        C  0.93960454  0.15743187  0.17763719     0.80400
O960        O  0.93492358  0.90737037  0.32085956    -0.57900
O961        O  0.96588666  0.83744759  0.28855424    -0.50900
C962        C  0.94243541  0.85242885  0.31246238     0.72400
O963        O  0.92829794  0.11224492  0.31750110    -0.72500
O964        O  0.95819177  0.18716742  0.28582962    -0.53000
C965        C  0.93451527  0.16867128  0.30911975     0.78400
O966        O  0.94021591  0.90010500  0.17649196    -0.57600
O967        O  0.97132032  0.83253439  0.20946155    -0.50700
C968        C  0.94889190  0.84578857  0.18455343     0.75000
Zr969      Zr  0.95219689  0.00502495  0.19490193     2.54700
O970        O  0.88667108  0.99774294  0.19802718    -0.78200
O971        O  0.95412522  0.99483633  0.12912502    -0.91600
Zr972      Zr  0.95032569  0.01084898  0.30207212     2.64700
O973        O  0.88489943  0.99796119  0.30287424    -0.96600
O974        O  0.95489692  0.01829392  0.36775763    -0.78600
O975        O  0.94788532  0.06711828  0.24757852    -0.82000
O976        O  0.95196115  0.94877519  0.24915855    -2.16700
O977        O  0.56069690  0.93249664  0.17374859    -0.65400
O978        O  0.54031245  0.85781806  0.21242909    -0.49900
C979        C  0.55646013  0.87669891  0.18344196     0.73400
O980        O  0.58005134  0.13799783  0.32234950    -0.58300
O981        O  0.54620053  0.20748638  0.29369081    -0.50300
C982        C  0.57094835  0.19287456  0.31613832     0.75200
O983        O  0.58510248  0.93390863  0.31645134    -0.69700
O984        O  0.54782119  0.85796236  0.29372123    -0.48300
C985        C  0.57559809  0.87761462  0.31173356     0.76600
O986        O  0.56908865  0.13838504  0.18058350    -0.65000
O987        O  0.53943116  0.20850580  0.21364395    -0.52200
C988        C  0.56198288  0.19361871  0.18902222     0.75000
Zr989      Zr  0.55151962  0.03385446  0.19759422     2.77500
O990        O  0.61709640  0.03217828  0.19570697    -0.95700
O991        O  0.54708107  0.04164179  0.13195666    -0.76600
Zr992      Zr  0.56323424  0.03466550  0.30332284     2.70100
O993        O  0.62770750  0.04653623  0.29173792    -0.77800
O994        O  0.56953890  0.03086481  0.36895436    -0.96900
Zr995      Zr  0.50364982  0.14786910  0.25596628     2.21500
Zr996      Zr  0.00734779  0.89680822  0.24989145     2.11100
O997        O  0.55785396  0.97402008  0.25031481    -2.45600
O998        O  0.55792061  0.09424190  0.25043453    -0.77600
O999        O  0.00706268  0.95503787  0.19564040    -0.69800
O1000       O  0.51009606  0.09023997  0.31003264    -2.30800
O1001       O  0.49782986  0.08765476  0.20203006    -2.27000
O1002       O  0.00467832  0.95647409  0.30410927    -0.71600
H1003       H  0.93148434  0.92037744  0.24896916     0.80400
H1004       H  0.51177739  0.11625945  0.33112744     0.81500
H1005       H  0.57880494  0.94975758  0.24756844     0.83700
H1006       H  0.49555097  0.11303271  0.18097559     0.81400
H1007       H  0.97868115  0.00195055  0.37346951     0.44400
H1008       H  0.55719474  0.99212365  0.37609908     0.43400
H1009       H  0.63912631  0.02234436  0.31077924     0.43000
H1010       H  0.62282050  0.98907499  0.19908680     0.41000
H1011       H  0.57167221  0.05425924  0.12385308     0.44100
H1012       H  0.96520427  0.03355374  0.12025221     0.38900
H1013       H  0.87896424  0.98657475  0.17311854     0.45000
H1014       H  0.87722848  0.01957253  0.32500943     0.41400
H1015       H  0.62345671  0.04079280  0.17013115     0.46300
H1016       H  0.92863368  0.99549253  0.12134141     0.45100
H1017       H  0.87673174  0.02324605  0.28260061     0.45200
H1018       H  0.59545148  0.02429728  0.37303870     0.45600
C1019       C  0.87508687  0.76626274  0.12638042    -0.00500
C1020       C  0.62922914  0.27991534  0.12325807    -0.00500
C1021       C  0.86666545  0.25984713  0.13873878    -0.00500
C1022       C  0.61581619  0.75741330  0.13918463    -0.00500
C1023       C  0.63144810  0.27525273  0.38984845    -0.00500
C1024       C  0.88269238  0.77354811  0.38675600    -0.00500
C1025       C  0.58997954  0.24232753  0.33703502    -0.14500
C1026       C  0.61043263  0.22914597  0.36591203    -0.29600
H1027       H  0.58680460  0.28929767  0.32931618     0.14600
H1028       H  0.61151590  0.18165760  0.37352722     0.15100
C1029       C  0.60764135  0.23206633  0.14530737    -0.14500
C1030       C  0.58121597  0.24363332  0.16912230    -0.29600
H1031       H  0.61497973  0.18505361  0.14214099     0.14600
H1032       H  0.57384191  0.29018651  0.17406834     0.15100
C1033       C  0.92141562  0.80365060  0.33134650    -0.14500
C1034       C  0.90947206  0.81344103  0.36526067    -0.29600
H1035       H  0.91483799  0.76139120  0.31718915     0.14600
H1036       H  0.92007679  0.85382593  0.37935766     0.15100
C1037       C  0.57109358  0.83249232  0.15814053    -0.14500
C1038       C  0.59432566  0.79024519  0.16805644    -0.29600
H1039       H  0.56753519  0.84156282  0.12945978     0.14600
H1040       H  0.59952783  0.78291721  0.19666362     0.15100
C1041       C  0.92985024  0.79526637  0.16511357    -0.14500
C1042       C  0.90693179  0.80733994  0.13806745    -0.29600
H1043       H  0.93094666  0.74979108  0.17608590     0.14600
H1044       H  0.90787522  0.85334498  0.12736285     0.15100
C1045       C  0.89489994  0.23377978  0.16419201    -0.14500
C1046       C  0.92112074  0.19805722  0.15275134    -0.29600
H1047       H  0.89147690  0.23902739  0.19333306     0.14600
H1048       H  0.92316068  0.18755429  0.12412748     0.15100
C1049       C  0.58745386  0.78734551  0.34904913    -0.14500
C1050       C  0.59948812  0.83367623  0.32805907    -0.29600
H1051       H  0.55860521  0.77752193  0.35129157     0.14600
H1052       H  0.62821745  0.84522818  0.32747074     0.15100
C1053       C  0.82168049  0.21682082  0.09273410    -0.14500
C1054       C  0.84761800  0.20804059  0.11751265    -0.29600
H1055       H  0.81393644  0.26282081  0.08694472     0.14600
H1056       H  0.85529581  0.16183593  0.12287123     0.15100
C1057       C  0.65753630  0.24716588  0.10103784    -0.14500
C1058       C  0.64759822  0.20084048  0.07880691    -0.29600
H1059       H  0.68606551  0.25742941  0.10554331     0.14600
H1060       H  0.61907783  0.18874451  0.07594623     0.15100
C1061       C  0.66015709  0.79238302  0.08980225    -0.14500
C1062       C  0.63785839  0.80489601  0.11750053    -0.29600
H1063       H  0.66405198  0.74550654  0.08197190     0.14600
H1064       H  0.63548650  0.85220236  0.12536598     0.15100
C1065       C  0.85681909  0.81601579  0.40502856    -0.14500
C1066       C  0.83012534  0.79821496  0.42788503    -0.29600
H1067       H  0.86040802  0.86422309  0.39922242     0.14600
H1068       H  0.82556073  0.75037859  0.43402132     0.15100
C1069       C  0.65088156  0.23990068  0.41910252    -0.14500
C1070       C  0.67314047  0.19540080  0.40951835    -0.29600
H1071       H  0.64473746  0.24723435  0.44757071     0.14600
H1072       H  0.67755931  0.18646722  0.38088601     0.15100
C1073       C  0.83301123  0.80138184  0.07608416    -0.14500
C1074       C  0.84878463  0.80860898  0.10850295    -0.29600
H1075       H  0.83620602  0.76012600  0.06041123     0.14600
H1076       H  0.84235283  0.84870869  0.12428627     0.15100
C1077       C  0.63392778  0.79897249  0.39721867    -0.14500
C1078       C  0.65899251  0.78500155  0.42195780    -0.29600
H1079       H  0.62732604  0.84634908  0.39446457     0.14600
H1080       H  0.66564203  0.73798200  0.42613956     0.15100
C1081       C  0.91281330  0.21607778  0.32708666    -0.14500
C1082       C  0.88687676  0.20132904  0.35138612    -0.29600
H1083       H  0.91780088  0.26317555  0.31964648     0.14600
H1084       H  0.88355528  0.15341939  0.35814965     0.15100
C1085       C  0.82571270  0.20938668  0.42661341    -0.14500
C1086       C  0.83491939  0.20347036  0.39150893    -0.29600
H1087       H  0.83365377  0.24980949  0.44197726     0.14600
H1088       H  0.82308555  0.16461876  0.37680537     0.15100
C1089       C  0.57115668  0.31373664  0.09325422    -0.14500
C1090       C  0.60707903  0.31696230  0.09720640    -0.29600
H1091       H  0.55488513  0.27664554  0.10463788     0.14600
H1092       H  0.62202563  0.35252919  0.08248740     0.15100
C1093       C  0.58883819  0.71948959  0.11680081    -0.14500
C1094       C  0.58057484  0.72655538  0.08163542    -0.29600
H1095       H  0.57559512  0.68174353  0.13118104     0.14600
H1096       H  0.58993117  0.76623152  0.06654560     0.15100
C1097       C  0.88725019  0.71369300  0.10249007    -0.14500
C1098       C  0.90889117  0.72038279  0.07353147    -0.29600
H1099       H  0.88006527  0.66753560  0.11094670     0.14600
H1100       H  0.91704020  0.76590497  0.06483691     0.15100
C1101       C  0.56858784  0.71895629  0.42017156    -0.14500
C1102       C  0.59370245  0.70612560  0.39547654    -0.29600
H1103       H  0.56150438  0.76569599  0.42501648     0.14600
H1104       H  0.60040214  0.65882613  0.39165169     0.15100
C1105       C  0.92612975  0.69650448  0.40430594    -0.14500
C1106       C  0.90399054  0.74002656  0.41495431    -0.29600
H1107       H  0.92972265  0.68756914  0.37554790     0.14600
H1108       H  0.89879709  0.74679437  0.44368546     0.15100
C1109       C  0.57761513  0.30582839  0.42849194    -0.14500
C1110       C  0.60573196  0.32030537  0.40658994    -0.29600
H1111       H  0.57168511  0.25861333  0.43531280     0.14600
H1112       H  0.61070042  0.36812817  0.40038626     0.15100
C1113       C  0.88329706  0.30823288  0.11314575    -0.14500
C1114       C  0.90562660  0.29748347  0.08535310    -0.29600
H1115       H  0.87600597  0.35506573  0.11730887     0.14600
H1116       H  0.91229854  0.25126892  0.07873858     0.15100
C1117       C  0.90816740  0.28375652  0.41594798    -0.14500
C1118       C  0.88049064  0.29341910  0.39344756    -0.29600
H1119       H  0.91729285  0.23793381  0.41950359     0.14600
H1120       H  0.87156633  0.33970003  0.39156139     0.15100
C1121       C  0.83806166  0.73907174  0.33775785    -0.14500
C1122       C  0.86135429  0.72638025  0.36420722    -0.29600
H1123       H  0.83357463  0.78594976  0.33065668     0.14600
H1124       H  0.86408896  0.67894117  0.37126236     0.15100
C1125       C  0.66008664  0.31403425  0.36996016    -0.14500
C1126       C  0.66993041  0.30947133  0.33499912    -0.29600
H1127       H  0.67260417  0.35091880  0.38584267     0.14600
H1128       H  0.66120527  0.27076913  0.31851519     0.15100
C1129       C  0.84941541  0.33932917  0.18284147    -0.14500
C1130       C  0.83911411  0.29111989  0.16238576    -0.29600
H1131       H  0.87768597  0.35421404  0.18315624     0.14600
H1132       H  0.81067879  0.27754297  0.16075064     0.15100
C1133       C  0.66634872  0.72712657  0.18096892    -0.14500
C1134       C  0.64062833  0.71238443  0.15650981    -0.29600
H1135       H  0.67115430  0.77430609  0.18884925     0.14600
H1136       H  0.63664641  0.66471002  0.14912468     0.15100
C1137       C  0.82375071  0.74125029  0.17074830    -0.14500
C1138       C  0.85797164  0.73634967  0.15958776    -0.29600
H1139       H  0.80654251  0.77615098  0.16078288     0.14600
H1140       H  0.87391281  0.70238972  0.17280667     0.15100
C1141       C  0.85038678  0.32765619  0.32408568    -0.14500
C1142       C  0.83803744  0.27738057  0.34163219    -0.29600
H1143       H  0.87845675  0.34244332  0.32709049     0.14600
H1144       H  0.80926632  0.26608664  0.34031125     0.15100
C1145       C  0.63758306  0.71741488  0.34765816    -0.14500
C1146       C  0.67354689  0.72271935  0.34566094    -0.29600
H1147       H  0.62401987  0.68154995  0.33174623     0.14600
H1148       H  0.68865763  0.76060840  0.35783607     0.15100
C1149       C  0.67183609  0.31391796  0.17373360    -0.14500
C1150       C  0.64722524  0.32653322  0.14851412    -0.29600
H1151       H  0.67963344  0.26739774  0.17764108     0.14600
H1152       H  0.64013290  0.37371251  0.14536813     0.15100
O1153       O  0.68305982  0.40461934  0.82485294    -0.73300
O1154       O  0.71334550  0.33648501  0.79096911    -0.52200
C1155       C  0.68998076  0.35022400  0.81508116     0.80400
O1156       O  0.67312355  0.61581063  0.68958316    -0.57900
O1157       O  0.70376426  0.69007836  0.72149396    -0.50900
C1158       C  0.68038792  0.67197527  0.69792910     0.72400
O1159       O  0.67614510  0.41032024  0.68690989    -0.72500
O1160       O  0.71209318  0.34103000  0.71285785    -0.53000
C1161       C  0.68663621  0.35577392  0.69140755     0.78400
O1162       O  0.69003725  0.60509828  0.84020463    -0.57600
O1163       O  0.70905328  0.68261160  0.80306518    -0.50700
C1164       C  0.69272560  0.66108654  0.83129451     0.75000
Zr1165     Zr  0.70283692  0.50875397  0.81359968     2.54700
O1166       O  0.63817344  0.51233559  0.82392891    -0.78200
O1167       O  0.71365764  0.49371074  0.87803019    -0.91600
Zr1168     Zr  0.69045907  0.51380528  0.70736379     2.64700
O1169       O  0.62660981  0.50582853  0.72254815    -0.96600
O1170       O  0.67689749  0.51554500  0.64286118    -0.78600
O1171       O  0.69667491  0.45216913  0.75926027    -0.82000
O1172       O  0.69390460  0.57052601  0.76198986    -2.16700
O1173       O  0.82404363  0.63230175  0.81886182    -0.65400
O1174       O  0.78825691  0.70007286  0.79136623    -0.49900
C1175       C  0.81431159  0.68691786  0.81234585     0.73400
O1176       O  0.82599490  0.43101448  0.68852341    -0.58300
O1177       O  0.79233107  0.35175949  0.71197430    -0.50300
C1178       C  0.81926810  0.37419041  0.69404289     0.75200
O1179       O  0.80733954  0.63061546  0.67838645    -0.69700
O1180       O  0.77867101  0.69985042  0.71305397    -0.48300
C1181       C  0.79984837  0.68524325  0.68710466     0.76600
O1182       O  0.83348170  0.42633901  0.81014816    -0.65000
O1183       O  0.79632600  0.34967959  0.78799466    -0.52200
C1184       C  0.82477794  0.36987973  0.80469464     0.75000
Zr1185     Zr  0.80789166  0.52599023  0.80285060     2.77500
O1186       O  0.87337340  0.53699996  0.80037832    -0.95700
O1187       O  0.80841576  0.51988012  0.86873654    -0.76600
Zr1188     Zr  0.79610473  0.52646035  0.69646054     2.70100
O1189       O  0.85905380  0.54630854  0.68032544    -0.77800
O1190       O  0.78250881  0.51058049  0.63252124    -0.96900
Zr1191     Zr  0.75162730  0.40108984  0.75270022     2.21500
Zr1192     Zr  0.74634019  0.63621453  0.75695102     2.11100
O1193       O  0.80170142  0.58544490  0.75016207    -2.45600
O1194       O  0.80359004  0.46781087  0.74883800    -0.77600
O1195       O  0.75359968  0.57704168  0.81013407    -0.69800
O1196       O  0.74460867  0.46074260  0.69940950    -2.30800
O1197       O  0.75711032  0.45725888  0.80814688    -2.27000
O1198       O  0.74209424  0.57931879  0.70194186    -0.71600
H1199       H  0.67243915  0.59349414  0.76499059     0.80400
H1200       H  0.74374954  0.43568573  0.67784067     0.81500
H1201       H  0.82193255  0.61407535  0.74801923     0.83700
H1202       H  0.75996687  0.43038388  0.82845157     0.81400
H1203       H  0.69834308  0.49877354  0.63104534     0.44400
H1204       H  0.76619445  0.54350157  0.62639435     0.43400
H1205       H  0.87047391  0.56150417  0.70302097     0.43000
H1206       H  0.87843630  0.57398073  0.78583187     0.41000
H1207       H  0.82133694  0.55763398  0.87689995     0.44100
H1208       H  0.72075734  0.45105757  0.88030949     0.38900
H1209       H  0.63411059  0.49027970  0.84696477     0.45000
H1210       H  0.61507958  0.48656788  0.70098009     0.41400
H1211       H  0.88061149  0.54866868  0.82534896     0.46300
H1212       H  0.68946350  0.49429483  0.88933078     0.45100
H1213       H  0.62479990  0.47418379  0.74148223     0.45200
H1214       H  0.80534409  0.52166602  0.61987063     0.45600
O1215       O  0.91864771  0.39454913  0.92392453    -0.73300
O1216       O  0.94713958  0.32600384  0.95864848    -0.52200
C1217       C  0.92531242  0.33970426  0.93337650     0.80400
O1218       O  0.56842651  0.61367999  0.93158727    -0.57900
O1219       O  0.53599076  0.68562088  0.96033837    -0.50900
C1220       C  0.55953336  0.66902980  0.93733872     0.72400
O1221       O  0.56500516  0.40716299  0.93727463    -0.72500
O1222       O  0.53320713  0.33677840  0.97064654    -0.53000
C1223       C  0.55668772  0.35203154  0.94639941     0.78400
O1224       O  0.92594221  0.60040184  0.91739785    -0.57600
O1225       O  0.95315899  0.67486595  0.95231711    -0.50700
C1226       C  0.93402065  0.65628482  0.92515703     0.75000
Zr1227     Zr  0.93507320  0.49960475  0.94203463     2.54700
O1228       O  0.92941835  0.49488065  0.87633847    -0.78200
O1229       O  0.86986235  0.50115872  0.94875601    -0.91600
Zr1230     Zr  0.55147248  0.51111403  0.95326474     2.64700
O1231       O  0.55607152  0.50549471  0.88749874    -0.96600
O1232       O  0.61679521  0.51253445  0.95914638    -0.78600
O1233       O  0.98810015  0.44294959  0.94320905    -0.82000
O1234       O  0.98971298  0.55957200  0.94225232    -2.16700
O1235       O  0.92339053  0.60796898  0.56835872    -0.65400
O1236       O  0.95850803  0.67579427  0.53620190    -0.49900
C1237       C  0.93398247  0.66286931  0.55981103     0.73400
O1238       O  0.55831892  0.40957970  0.57534153    -0.58300
O1239       O  0.52404137  0.33686850  0.54575984    -0.50300
C1240       C  0.54868279  0.35380037  0.56837702     0.75200
O1241       O  0.55995424  0.61667342  0.57257178    -0.69700
O1242       O  0.53120702  0.68591218  0.53849118    -0.48300
C1243       C  0.55405566  0.67137284  0.56259588     0.76600
O1244       O  0.92023408  0.39818534  0.57346126    -0.65000
O1245       O  0.94947613  0.32554964  0.54174022    -0.52200
C1246       C  0.92725145  0.34229789  0.56614062     0.75000
Zr1247     Zr  0.93770578  0.50161534  0.55270012     2.77500
O1248       O  0.93748868  0.50829855  0.61861064    -0.95700
O1249       O  0.87214247  0.49982184  0.55003065    -0.76600
Zr1250     Zr  0.54102012  0.51200614  0.55826509     2.70100
O1251       O  0.53788408  0.51489172  0.62415945    -0.77800
O1252       O  0.60669743  0.51474165  0.55929910    -0.96900
Zr1253     Zr  0.98893996  0.38047831  0.50041095     2.21500
Zr1254     Zr  0.99523897  0.61386459  0.49758850     2.11100
O1255       O  0.99306711  0.55917766  0.55322660    -2.45600
O1256       O  0.98959563  0.44146009  0.55420800    -0.77600
O1257       O  0.93908940  0.55728091  0.49771230    -0.69800
O1258       O  0.54266662  0.45328491  0.50447179    -2.30800
O1259       O  0.93592834  0.43864461  0.49990328    -2.27000
O1260       O  0.54272885  0.56968408  0.50419011    -0.71600
H1261       H  0.99140918  0.58395442  0.92063735     0.80400
H1262       H  0.56358742  0.42859922  0.50498120     0.81500
H1263       H  0.99384945  0.58653724  0.57380104     0.83700
H1264       H  0.91447899  0.41247020  0.50013676     0.81400
H1265       H  0.62110396  0.50700509  0.98536134     0.44400
H1266       H  0.61409355  0.55064095  0.54465999     0.43400
H1267       H  0.56249250  0.50576406  0.63227402     0.43000
H1268       H  0.91507983  0.48602148  0.62618116     0.41000
H1269       H  0.86485473  0.52655045  0.57019271     0.44100
H1270       H  0.86033706  0.48620074  0.92517292     0.38900
H1271       H  0.95111593  0.51742684  0.86715533     0.45000
H1272       H  0.54098876  0.53826094  0.87846355     0.41400
H1273       H  0.95715244  0.48215435  0.62632046     0.46300
H1274       H  0.86440392  0.54477525  0.94929465     0.45100
H1275       H  0.58111607  0.51974279  0.88217337     0.45200
H1276       H  0.61319774  0.52632866  0.58448068     0.45600
C1277       C  0.86140090  0.24782005  0.86719897    -0.00500
O1278       O  0.81290150  0.11150840  0.93514296    -0.73300
O1279       O  0.78344015  0.18177962  0.96854292    -0.52200
C1280       C  0.80595969  0.16654140  0.94389633     0.80400
O1281       O  0.67022996  0.89798092  0.93573378    -0.57900
O1282       O  0.70167224  0.82748398  0.96606144    -0.50900
C1283       C  0.67779653  0.84297458  0.94308595     0.72400
O1284       O  0.68231165  0.09980638  0.92529977    -0.72500
O1285       O  0.70481642  0.17510687  0.96257227    -0.53000
C1286       C  0.68751462  0.15578572  0.93422128     0.78400
O1287       O  0.81540547  0.90699558  0.93625729    -0.57600
O1288       O  0.78178783  0.83242761  0.96452158    -0.50700
C1289       C  0.80666104  0.85079614  0.94236132     0.75000
Zr1290     Zr  0.79701110  0.00803402  0.95391272     2.54700
O1291       O  0.79795512  0.00651657  0.88797113    -0.78200
O1292       O  0.86254925  0.01401256  0.95807109    -0.91600
Zr1293     Zr  0.69070145  0.00061296  0.95120196     2.64700
O1294       O  0.68891822  0.98716308  0.88553051    -0.96600
O1295       O  0.62589539  0.01321287  0.95446830    -0.78600
O1296       O  0.74380465  0.06358614  0.95210625    -0.81600
O1297       O  0.74387836  0.94505401  0.95108723    -2.16700
O1298       O  0.81492499  0.90040633  0.57652867    -0.65400
O1299       O  0.78213749  0.82642715  0.54636113    -0.49900
C1300       C  0.80717332  0.84416794  0.56859407     0.73400
O1301       O  0.66093500  0.09308476  0.56835307    -0.58300
O1302       O  0.69610779  0.16828650  0.54238684    -0.50300
C1303       C  0.66887567  0.14920223  0.56134456     0.75200
O1304       O  0.66702221  0.88882249  0.57385003    -0.69700
O1305       O  0.70066625  0.81865591  0.54517494    -0.48300
C1306       C  0.67577857  0.83373940  0.56744082     0.76600
O1307       O  0.80919317  0.10694395  0.57804068    -0.65000
O1308       O  0.77677515  0.17511051  0.54658206    -0.52200
C1309       C  0.80075711  0.16160705  0.56978624     0.75000
Zr1310     Zr  0.79162897  0.00110803  0.56247278     2.77500
O1311       O  0.78129192  0.99480836  0.62751247    -0.95700
O1312       O  0.85645412  0.00964480  0.57224149    -0.76600
Zr1313     Zr  0.68505456  0.99289056  0.55738322     2.70100
O1314       O  0.68672450  0.99805887  0.62330882    -0.77800
O1315       O  0.61942242  0.98591095  0.55947862    -0.96900
Zr1316     Zr  0.73963587  0.11409124  0.50624454     2.21500
Zr1317     Zr  0.74135317  0.87870459  0.50635763     2.11100
O1318       O  0.73863692  0.93749412  0.56085655    -2.45600
O1319       O  0.73789779  0.05691562  0.56122266    -0.77600
O1320       O  0.79489922  0.94211843  0.50864861    -0.69800
O1321       O  0.68598135  0.05123493  0.50342041    -2.30800
O1322       O  0.79423518  0.05989345  0.50869378    -2.27000
O1323       O  0.68702983  0.93341497  0.50364600    -0.71600
H1324       H  0.74428889  0.91918521  0.92989043     0.80400
H1325       H  0.66482201  0.07518216  0.50150911     0.81500
H1326       H  0.73803964  0.91158690  0.58187742     0.83700
H1327       H  0.81506828  0.08748578  0.50932404     0.81400
H1328       H  0.61529429  0.97145805  0.95638241     0.44400
H1329       H  0.61254075  0.94966659  0.54471973     0.43400
H1330       H  0.69338628  0.95703461  0.63105261     0.43000
H1331       H  0.80546018  0.98867942  0.63787975     0.41000
H1332       H  0.86683801  0.01427140  0.54763992     0.44100
H1333       H  0.86836753  0.05362771  0.96986682     0.38900
H1334       H  0.77300006  0.99418713  0.88095995     0.45000
H1335       H  0.70450592  0.02075123  0.87584137     0.41400
H1336       H  0.77549821  0.03655945  0.63492445     0.46300
H1337       H  0.87083962  0.01932348  0.93272445     0.45100
H1338       H  0.70255820  0.95029535  0.88052048     0.45200
H1339       H  0.61354760  0.97405998  0.58472088     0.45600
C1340       C  0.61921581  0.76010096  0.86904580    -0.00500
O1341       O  0.93339108  0.13059916  0.67830579    -0.73300
O1342       O  0.96796548  0.20318859  0.70739123    -0.52200
C1343       C  0.94302512  0.18623799  0.68524472     0.80400
O1344       O  0.93101842  0.91430720  0.81506440    -0.57900
O1345       O  0.95854616  0.84462784  0.77951107    -0.50900
C1346       C  0.93648971  0.85933647  0.80479519     0.72400
O1347       O  0.92903196  0.12000031  0.81478725    -0.72500
O1348       O  0.96147215  0.19530725  0.78582073    -0.53000
C1349       C  0.93663330  0.17638645  0.80781643     0.78400
O1350       O  0.94175121  0.93003526  0.66067120    -0.57600
O1351       O  0.96345732  0.85417630  0.69551572    -0.50700
C1352       C  0.94658909  0.87393938  0.66754698     0.75000
Zr1353     Zr  0.94837229  0.02630950  0.69227325     2.54700
O1354       O  0.88389543  0.01236846  0.70336860    -0.78200
O1355       O  0.93524184  0.03653480  0.62790853    -0.91600
Zr1356     Zr  0.94858393  0.01882222  0.79846444     2.64700
O1357       O  0.88291003  0.01231039  0.79916136    -0.96600
O1358       O  0.95169871  0.02053565  0.86435465    -0.78600
O1359       O  0.94832478  0.08258723  0.74675369    -0.82000
O1360       O  0.94698018  0.96192846  0.74366260    -2.16700
O1361       O  0.55941994  0.93099662  0.67293800    -0.65400
O1362       O  0.53977551  0.85647831  0.71184497    -0.49900
C1363       C  0.55520692  0.87514236  0.68249843     0.73400
O1364       O  0.57404928  0.13650635  0.82230617    -0.58300
O1365       O  0.54144150  0.20582848  0.79230470    -0.50300
C1366       C  0.56585253  0.19125069  0.81522493     0.75200
O1367       O  0.58060777  0.93710075  0.81823632    -0.69700
O1368       O  0.54719736  0.85921570  0.79246896    -0.48300
C1369       C  0.57376471  0.88067826  0.81159903     0.76600
O1370       O  0.56753580  0.13561878  0.67962416    -0.65000
O1371       O  0.53746105  0.20580700  0.71221497    -0.52200
C1372       C  0.55994384  0.19075557  0.68747166     0.75000
Zr1373     Zr  0.55198553  0.03186406  0.69849358     2.77500
O1374       O  0.61737925  0.02888227  0.70185974    -0.95700
O1375       O  0.55500230  0.03880608  0.63270491    -0.76600
Zr1376     Zr  0.55525671  0.03407267  0.80546152     2.70100
O1377       O  0.62072720  0.04475814  0.80619355    -0.77800
O1378       O  0.55135078  0.03096656  0.87131783    -0.96900
Zr1379     Zr  0.49971903  0.14545288  0.75355085     2.21500
Zr1380     Zr  0.00083359  0.90526889  0.74254631     2.11100
O1381       O  0.55603215  0.97400808  0.75202690    -2.45600
O1382       O  0.55434083  0.09251262  0.75174241    -0.77600
O1383       O  0.00097412  0.96879247  0.69035782    -0.69800
O1384       O  0.50118953  0.08758146  0.80800624    -2.30800
O1385       O  0.49792066  0.08453850  0.69955203    -2.27000
O1386       O  0.00153565  0.96189750  0.79804696    -0.71600
H1387       H  0.92582159  0.93508282  0.74267786     0.80400
H1388       H  0.50156827  0.11397059  0.82900296     0.81500
H1389       H  0.57752643  0.95078044  0.75051571     0.83700
H1390       H  0.49716459  0.10934583  0.67810338     0.81400
H1391       H  0.96606313  0.98514522  0.87061709     0.44400
H1392       H  0.57655005  0.03767235  0.87961034     0.43400
H1393       H  0.62782290  0.04187447  0.78038822     0.43000
H1394       H  0.62540824  0.02946859  0.67625609     0.41000
H1395       H  0.53190354  0.05633768  0.62560513     0.44100
H1396       H  0.95311952  0.06744660  0.61896247     0.38900
H1397       H  0.87244264  0.03673453  0.68442213     0.45000
H1398       H  0.87625251  0.97447049  0.78578599     0.41400
H1399       H  0.62513471  0.06931254  0.71148958     0.46300
H1400       H  0.91180974  0.05645330  0.62674439     0.45100
H1401       H  0.87650550  0.00332867  0.82469093     0.45200
H1402       H  0.53932716  0.06864985  0.87826134     0.45600
C1403       C  0.87664832  0.75755976  0.62867434    -0.00500
C1404       C  0.62557569  0.27420868  0.61902454    -0.00500
C1405       C  0.86377721  0.25521956  0.63483143    -0.00500
C1406       C  0.61106761  0.75163640  0.63734320    -0.00500
C1407       C  0.62832212  0.27283632  0.88743555    -0.00500
C1408       C  0.87799715  0.77732835  0.87968723    -0.00500
C1409       C  0.58589471  0.24010614  0.83567591    -0.14500
C1410       C  0.60730279  0.22636277  0.86394824    -0.29600
H1411       H  0.58265267  0.28719947  0.82825086     0.14600
H1412       H  0.60918944  0.17893559  0.87140335     0.15100
C1413       C  0.60405085  0.22733684  0.64174985    -0.14500
C1414       C  0.57848581  0.24008778  0.66636582    -0.29600
H1415       H  0.61105443  0.18015019  0.63872560     0.14600
H1416       H  0.57142013  0.28685817  0.67105041     0.15100
C1417       C  0.91494983  0.81018569  0.82314070    -0.14500
C1418       C  0.90474555  0.81728386  0.85792231    -0.29600
H1419       H  0.90700372  0.76951306  0.80800944     0.14600
H1420       H  0.91641358  0.85625329  0.87261262     0.15100
C1421       C  0.56875294  0.83058398  0.65670686    -0.14500
C1422       C  0.59047500  0.78591602  0.66630982    -0.29600
H1423       H  0.56544039  0.84054545  0.62810418     0.14600
H1424       H  0.59533075  0.77765092  0.69488193     0.15100
C1425       C  0.92973469  0.83082702  0.64123975    -0.14500
C1426       C  0.90672689  0.78634388  0.65244705    -0.29600
H1427       H  0.92907022  0.84493078  0.61311437     0.14600
H1428       H  0.90627528  0.77702962  0.68143048     0.15100
C1429       C  0.88793944  0.22309835  0.66100896    -0.14500
C1430       C  0.92341038  0.23295127  0.66606080    -0.29600
H1431       H  0.87475493  0.18575343  0.67584808     0.14600
H1432       H  0.93793765  0.27229000  0.65499558     0.15100
C1433       C  0.59086342  0.79090120  0.84636026    -0.14500
C1434       C  0.60003498  0.83971578  0.82635103    -0.29600
H1435       H  0.56262128  0.77619047  0.84832386     0.14600
H1436       H  0.62808844  0.85578797  0.82570895     0.15100
C1437       C  0.81947540  0.21332134  0.58832363    -0.14500
C1438       C  0.84643698  0.20493073  0.61158960    -0.29600
H1439       H  0.81022059  0.25884631  0.58380213     0.14600
H1440       H  0.85549050  0.15888350  0.61505909     0.15100
C1441       C  0.65346030  0.24085638  0.59659430    -0.14500
C1442       C  0.64340365  0.19333774  0.57531284    -0.29600
H1443       H  0.68203830  0.25158830  0.60044358     0.14600
H1444       H  0.61490573  0.18064377  0.57307347     0.15100
C1445       C  0.65579394  0.78458147  0.58745168    -0.14500
C1446       C  0.63374583  0.79790437  0.61524884    -0.29600
H1447       H  0.65913652  0.73756999  0.57958842     0.14600
H1448       H  0.63227857  0.84535074  0.62314102     0.15100
C1449       C  0.85191906  0.82041366  0.89744374    -0.14500
C1450       C  0.82719267  0.80420742  0.92279137    -0.29600
H1451       H  0.85459348  0.86816066  0.89014930     0.14600
H1452       H  0.82331975  0.75680327  0.93028902     0.15100
C1453       C  0.64846354  0.23999295  0.91717316    -0.14500
C1454       C  0.67311405  0.19916086  0.90838149    -0.29600
H1455       H  0.64171949  0.24709233  0.94552664     0.14600
H1456       H  0.67823997  0.19015872  0.87987979     0.15100
C1457       C  0.82803604  0.79554280  0.58616168    -0.14500
C1458       C  0.85628053  0.80710493  0.60857434    -0.29600
H1459       H  0.81957459  0.74858226  0.58092994     0.14600
H1460       H  0.86441429  0.85430410  0.61347344     0.15100
C1461       C  0.63650400  0.80714136  0.89492560    -0.14500
C1462       C  0.65843643  0.79422069  0.92269378    -0.29600
H1463       H  0.63077121  0.85448527  0.89043002     0.14600
H1464       H  0.66313524  0.74768234  0.93000054     0.15100
C1465       C  0.91464336  0.22271093  0.82589439    -0.14500
C1466       C  0.88826742  0.20599971  0.84931234    -0.29600
H1467       H  0.91959193  0.27010147  0.81920866     0.14600
H1468       H  0.88543183  0.15794372  0.85583003     0.15100
C1469       C  0.82602051  0.21539035  0.92430224    -0.14500
C1470       C  0.83645330  0.20628448  0.88981042    -0.29600
H1471       H  0.83238173  0.25792267  0.93823906     0.14600
H1472       H  0.82599220  0.16533271  0.87617809     0.15100
C1473       C  0.56729521  0.30591459  0.58805582    -0.14500
C1474       C  0.60310968  0.31115162  0.59313419    -0.29600
H1475       H  0.55152081  0.26751672  0.59863416     0.14600
H1476       H  0.61772836  0.34779302  0.57903747     0.15100
C1477       C  0.58334528  0.71447324  0.61567292    -0.14500
C1478       C  0.57543738  0.72037863  0.58048361    -0.29600
H1479       H  0.56956539  0.67771852  0.63048677     0.14600
H1480       H  0.58531441  0.75910460  0.56483316     0.15100
C1481       C  0.89100336  0.70850041  0.60301937    -0.14500
C1482       C  0.91805275  0.71566887  0.57894082    -0.29600
H1483       H  0.87958877  0.66250907  0.60588483     0.14600
H1484       H  0.92998240  0.76061919  0.57425563     0.15100
C1485       C  0.57681822  0.71816104  0.91603251    -0.14500
C1486       C  0.60113543  0.70815326  0.89004330    -0.29600
H1487       H  0.56928537  0.76443373  0.92178287     0.14600
H1488       H  0.60857497  0.66182888  0.88426762     0.15100
C1489       C  0.92152796  0.70102378  0.89932371    -0.14500
C1490       C  0.89939650  0.74537532  0.90873054    -0.29600
H1491       H  0.92532366  0.69060060  0.87077110     0.14600
H1492       H  0.89405553  0.75367775  0.93728275     0.15100
C1493       C  0.57657007  0.30323825  0.92830612    -0.14500
C1494       C  0.60252868  0.31742064  0.90390537    -0.29600
H1495       H  0.57165245  0.25637039  0.93648379     0.14600
H1496       H  0.60636356  0.36483879  0.89619557     0.15100
C1497       C  0.88273321  0.30379297  0.61113728    -0.14500
C1498       C  0.90901982  0.29287728  0.58726921    -0.29600
H1499       H  0.87401665  0.35021315  0.61342569     0.14600
H1500       H  0.91757618  0.24666875  0.58347146     0.15100
C1501       C  0.90678426  0.28836902  0.91394742    -0.14500
C1502       C  0.88037833  0.29773537  0.89003596    -0.29600
H1503       H  0.91504241  0.24243258  0.91906512     0.14600
H1504       H  0.87222535  0.34413534  0.88635337     0.15100
C1505       C  0.83425005  0.73835966  0.83048041    -0.14500
C1506       C  0.85710404  0.72828489  0.85778458    -0.29600
H1507       H  0.82941158  0.78459347  0.82225777     0.14600
H1508       H  0.85985956  0.68137926  0.86598710     0.15100
C1509       C  0.65633312  0.31104767  0.86676960    -0.14500
C1510       C  0.66861564  0.30122809  0.83301332    -0.29600
H1511       H  0.66728823  0.35071607  0.88136300     0.14600
H1512       H  0.66184314  0.25951572  0.81837773     0.15100
C1513       C  0.84533200  0.33319318  0.67893425    -0.14500
C1514       C  0.83553530  0.28590379  0.65759026    -0.29600
H1515       H  0.87359200  0.34786410  0.68046903     0.14600
H1516       H  0.80712171  0.27299124  0.65457391     0.15100
C1517       C  0.66033249  0.71963558  0.67957317    -0.14500
C1518       C  0.63511878  0.70556638  0.65463615    -0.29600
H1519       H  0.66540018  0.76677125  0.68744125     0.14600
H1520       H  0.63085274  0.65797098  0.64714505     0.15100
C1521       C  0.81876303  0.73312660  0.66585218    -0.14500
C1522       C  0.85261227  0.72226766  0.65514265    -0.29600
H1523       H  0.80540847  0.77431678  0.65870224     0.14600
H1524       H  0.86527379  0.68317378  0.66702043     0.15100
C1525       C  0.84968346  0.32640951  0.81983486    -0.14500
C1526       C  0.83786308  0.27755936  0.83883897    -0.29600
H1527       H  0.87763813  0.34212923  0.82215862     0.14600
H1528       H  0.80916803  0.26542575  0.83815048     0.15100
C1529       C  0.64748891  0.73516914  0.84362540    -0.14500
C1530       C  0.67422983  0.70156610  0.85566559    -0.29600
H1531       H  0.64405786  0.73976470  0.81448617     0.14600
H1532       H  0.67625234  0.69145154  0.88419907     0.15100
C1533       C  0.66859767  0.30697493  0.66955427    -0.14500
C1534       C  0.64435218  0.32045430  0.64401777    -0.29600
H1535       H  0.67594542  0.26021750  0.67344902     0.14600
H1536       H  0.63778369  0.36783494  0.64074240     0.15100
loop_ 
_geom_bond_atom_site_label_1 
_geom_bond_atom_site_label_2 
_geom_bond_distance 
_geom_bond_site_symmetry_2 
_ccdc_geom_bond_type 
O1          Zr13   2.448       .  S
O1            C3   1.291       .  A
O2          Zr39   2.406       .  S
O2            C3   1.281       .  A
C3          C358   1.474       .  S
O4          Zr16   2.441       .  S
O4            C6   1.290       .  A
O5          Zr40   2.450       .  S
O5            C6   1.290       .  A
C6          C365   1.492       .  S
O7          Zr16   2.441       .  S
O7            C9   1.290       .  A
O8          Zr39   2.393       .  S
O8            C9   1.278       .  A
C9          C381   1.467       .  S
O10         Zr13   2.441       .  S
O10          C12   1.289       .  A
O11         Zr40   2.441       .  S
O11          C12   1.288       .  A
C12         C378   1.481       .  S
Zr13         O14   2.436       .  S
Zr13         O15   2.435       .  S
Zr13         O19   2.374       .  S
Zr13         O20   2.368       .  S
Zr13         O43   2.376       .  S
Zr13         O45   2.361       .  S
O14          H57   0.990       .  S
O15          H56   0.990       .  S
O15          H60   0.990       .  S
Zr16         O17   2.436       .  S
Zr16         O18   2.435       .  S
Zr16         O20   2.372       .  S
Zr16         O19   2.369       .  S
Zr16         O44   2.372       .  S
Zr16         O46   2.365       .  S
O17          H58   0.990       .  S
O17          H61   0.990       .  S
O18          H51   0.990       .  S
O19         Zr39   2.382       .  S
O20         Zr40   2.391       .  S
O20          H47   0.966       .  S
O21         Zr33   2.405       .  S
O21          C23   1.280       .  A
O22         Zr40   2.441       .  S
O22          C23   1.289       .  A
C23         C353   1.454       .  S
O24         Zr36   2.460       .  S
O24          C26   1.294       .  A
O25         Zr39   2.409       .  S
O25          C26   1.281       .  A
C26         C361   1.482       .  S
O27         Zr36   2.443       .  S
O27          C29   1.288       .  A
O28         Zr40   2.432       .  S
O28          C29   1.287       .  A
C29         C369   1.469       .  S
O30         Zr33   2.444       .  S
O30          C32   1.290       .  A
O31         Zr39   2.402       .  S
O31          C32   1.280       .  A
C32         C373   1.466       .  S
Zr33         O34   2.435       .  S
Zr33         O35   2.435       .  S
Zr33         O41   2.377       .  S
Zr33         O42   2.355       .  S
Zr33         O45   2.360       .  S
Zr33         O43   2.383       .  S
O34          H54   0.990       .  S
O34          H59   0.990       .  S
O35          H55   0.990       .  S
Zr36         O37   2.437       .  S
Zr36         O38   2.436       .  S
Zr36         O42   2.367       .  S
Zr36         O41   2.363       .  S
Zr36         O46   2.374       .  S
Zr36         O44   2.365       .  S
O37          H53   0.990       .  S
O38          H52   0.990       .  S
O38          H62   0.990       .  S
Zr39         O42   2.373       .  S
Zr39         O44   2.386       .  S
Zr39         O45   2.377       .  S
Zr40         O41   2.395       .  S
Zr40         O43   2.389       .  S
Zr40         O46   2.389       .  S
O41          H49   0.966       .  S
O44          H48   0.966       .  S
O45          H50   0.966       .  S
O63         Zr75   2.456       .  S
O63          C65   1.292       .  A
O64        Zr485   2.399       .  S
O64          C65   1.280       .  A
C65         C349   1.468       .  S
O66         Zr78   2.459       .  S
O66          C68   1.292       .  A
O67       Zr1254   2.419   1_455  S
O67          C68   1.283       .  A
C68         C333   1.483       .  S
O69         Zr78   2.434       .  S
O69          C71   1.288       .  A
O70       Zr1253   2.431   1_455  S
O70          C71   1.285       .  A
C71         C341   1.475       .  S
O72         Zr75   2.482       .  S
O72          C74   1.296       .  A
O73        Zr486   2.409       .  S
O73          C74   1.281       .  A
C74         C337   1.488       .  S
Zr75         O76   2.435       .  S
Zr75         O77   2.436       .  S
Zr75         O81   2.386       .  S
Zr75         O82   2.370       .  S
Zr75        O489   2.373       .  S
Zr75        O491   2.380       .  S
O76         H119   0.990       .  S
O77         H118   0.990       .  S
O77         H122   0.990       .  S
Zr78         O79   2.436       .  S
Zr78         O80   2.435       .  S
Zr78        O850   2.359   1_455  S
Zr78        O849   2.381   1_455  S
Zr78        O490   2.369       .  S
Zr78        O492   2.366       .  S
O79         H120   0.990       .  S
O79         H123   0.990       .  S
O80         H113   0.990       .  S
O81        Zr846   2.369       .  S
O81        Zr485   2.384       .  S
O82        Zr846   2.370       .  S
O82        Zr486   2.381       .  S
O82         H109   0.966       .  S
O83         Zr95   2.486       .  S
O83          C85   1.296       .  A
O84        Zr102   2.433       .  S
O84          C85   1.286       .  A
C85         C330   1.504       .  S
O86         Zr98   2.457       .  S
O86          C88   1.292       .  A
O87        Zr869   2.403   1_454  S
O87          C88   1.279       .  A
C88         C321   1.469       .  S
O89         Zr98   2.440       .  S
O89          C91   1.289       .  A
O90        Zr870   2.445   1_454  S
O90          C91   1.288       .  A
C91         C326   1.486       .  S
O92         Zr95   2.437       .  S
O92          C94   1.287       .  A
O93        Zr101   2.418       .  S
O93          C94   1.283       .  A
C94         C346   1.459       .  S
Zr95         O96   2.437       .  S
Zr95         O97   2.436       .  S
Zr95        O103   2.367       .  S
Zr95        O104   2.384       .  S
Zr95        O107   2.388       .  S
Zr95        O105   2.367   1_554  S
O96         H116   0.990       .  S
O96         H121   0.990       .  S
O97         H117   0.990       .  S
Zr98         O99   2.435       .  S
Zr98        O100   2.435       .  S
Zr98        O108   2.377   1_554  S
Zr98        O106   2.366       .  S
Zr98        O872   2.364   1_455  S
Zr98        O871   2.375   1_455  S
O99         H115   0.990       .  S
O100        H114   0.990       .  S
O100        H124   0.990       .  S
Zr101       O448   2.408   1_554  S
Zr101      O1222   2.428   1_554  S
Zr101       O855   2.406       .  S
Zr101       O104   2.386       .  S
Zr101       O107   2.390       .  S
Zr101       O465   2.375   1_554  S
Zr101       O874   2.387       .  S
Zr102      O1219   2.392   1_554  S
Zr102       O457   2.437   1_554  S
Zr102       O858   2.434       .  S
Zr102       O103   2.386       .  S
Zr102       O105   2.384   1_554  S
Zr102       O466   2.385   1_554  S
Zr102       O876   2.391       .  S
O103       Zr866   2.384       .  S
O103        H111   0.966       .  S
O104       Zr866   2.358       .  S
O105       Zr459   2.385       .  S
O106       Zr462   2.374   1_554  S
O106       Zr869   2.386   1_454  S
O106        H110   0.966       .  S
O107       Zr459   2.363   1_554  S
O107        H112   0.966       .  S
O108       Zr462   2.366       .  S
O108       Zr870   2.380   1_455  S
C125        C314   1.518       .  S
C125        C318   1.529       .  S
C125        C350   1.526       .  S
C125        C374   1.517       .  S
O126       Zr138   2.461   1_545  S
O126        C128   1.293       .  A
O127       Zr548   2.401       .  S
O127        C128   1.280       .  A
C128        C317   1.469       .  S
O129       Zr141   2.437       .  S
O129        C131   1.289       .  A
O130       Zr549   2.436       .  S
O130        C131   1.287       .  A
C131        C310   1.488       .  S
O132       Zr141   2.446   1_545  S
O132        C134   1.287       .  A
O133       Zr548   2.437       .  S
O133        C134   1.287       .  A
C134        C302   1.471       .  S
O135       Zr138   2.458       .  S
O135        C137   1.292       .  A
O136       Zr549   2.436       .  S
O136        C137   1.288       .  A
C137        C298   1.488       .  S
Zr138       O139   2.435       .  S
Zr138       O140   2.437   1_565  S
Zr138       O144   2.377   1_565  S
Zr138       O145   2.372       .  S
Zr138       O552   2.379       .  S
Zr138       O554   2.371   1_565  S
O139        H182   0.990       .  S
O140        H181   0.990       .  S
O140        H185   0.990       .  S
Zr141       O142   2.436       .  S
Zr141       O143   2.435       .  S
Zr141       O145   2.366       .  S
Zr141       O144   2.372   1_565  S
Zr141       O553   2.363   1_565  S
Zr141       O555   2.378       .  S
O142        H183   0.990       .  S
O142        H186   0.990   1_565  S
O143        H176   0.990       .  S
O144       Zr548   2.389       .  S
O145       Zr549   2.394       .  S
O145        H172   0.966       .  S
O146       Zr158   2.447   1_565  S
O146        C148   1.291       .  A
O147       Zr165   2.450   1_554  S
O147        C148   1.290       .  A
C148        C305   1.495       .  S
O149       Zr161   2.450   1_545  S
O149        C151   1.289       .  A
O150       Zr164   2.409       .  S
O150        C151   1.283       .  A
C151        C290   1.459       .  S
O152       Zr161   2.439       .  S
O152        C154   1.289       .  A
O153       Zr165   2.451   1_554  S
O153        C154   1.291       .  A
C154        C293   1.492       .  S
O155       Zr158   2.444       .  S
O155        C157   1.290       .  A
O156       Zr164   2.430       .  S
O156        C157   1.286       .  A
C157        C285   1.483       .  S
Zr158       O159   2.435   1_545  S
Zr158       O160   2.434       .  S
Zr158       O166   2.361   1_545  S
Zr158       O167   2.378       .  S
Zr158       O170   2.370       .  S
Zr158       O168   2.376   1_544  S
O159        H179   0.990       .  S
O159        H184   0.990   1_565  S
O160        H180   0.990       .  S
Zr161       O162   2.434       .  S
Zr161       O163   2.439       .  S
Zr161       O167   2.371   1_565  S
Zr161       O166   2.380       .  S
Zr161       O171   2.374   1_554  S
Zr161       O169   2.374   1_564  S
O162        H178   0.990       .  S
O163        H177   0.990       .  S
O163        H187   0.990       .  S
Zr164       O511   2.422   1_554  S
Zr164       O517   2.429   1_554  S
Zr164       O167   2.389       .  S
Zr164       O169   2.391   1_554  S
Zr164       O170   2.381       .  S
Zr164       O528   2.378   1_554  S
Zr165       O514   2.436       .  S
Zr165       O520   2.453       .  S
Zr165       O166   2.395   1_556  S
Zr165       O168   2.388       .  S
Zr165       O171   2.392       .  S
Zr165       O529   2.392       .  S
O166        H174   0.966       .  S
O168       Zr522   2.379   1_565  S
O169       Zr525   2.351   1_545  S
O169        H173   0.965       .  S
O170       Zr522   2.358   1_554  S
O170        H175   0.966       .  S
O171       Zr525   2.365       .  S
C188        C281   1.535       .  S
C188        C309   1.533       .  S
C188        C334   1.528       .  S
C188        C377   1.527       .  S
O189       Zr201   2.435       .  S
O189        C191   1.289       .  A
O190       Zr995   2.444       .  S
O190        C191   1.289       .  A
C191        C278   1.481       .  S
O192       Zr204   2.416   1_565  S
O192        C194   1.281       .  A
O193       Zr228   2.463       .  S
O193        C194   1.294       .  A
C194        C265   1.475       .  S
O195       Zr204   2.429       .  S
O195        C197   1.287       .  A
O196       Zr995   2.409       .  S
O196        C197   1.281       .  A
C197        C313   1.472       .  S
O198       Zr201   2.463   1_565  S
O198        C200   1.293       .  A
O199       Zr228   2.447       .  S
O199        C200   1.290       .  A
C200        C273   1.499       .  S
Zr201       O202   2.436       .  S
Zr201       O203   2.436       .  S
Zr201       O207   2.375       .  S
Zr201       O208   2.373   1_545  S
Zr201       O231   2.356   1_545  S
Zr201      O1001   2.383       .  S
O202        H245   0.990   1_545  S
O203        H244   0.990       .  S
O203        H248   0.990       .  S
Zr204       O205   2.436       .  S
Zr204       O206   2.435       .  S
Zr204       O208   2.377   1_545  S
Zr204       O207   2.364       .  S
Zr204       O234   2.368   1_545  S
Zr204      O1000   2.357       .  S
O205        H246   0.990       .  S
O205        H249   0.990       .  S
O206        H239   0.990       .  S
O207       Zr995   2.387       .  S
O208       Zr228   2.385       .  S
O208        H235   0.966       .  S
O209       Zr221   2.443   1_565  S
O209        C211   1.288       .  A
O210       Zr996   2.445       .  S
O210        C211   1.289       .  A
C211        C269   1.475       .  S
O212       Zr224   2.424       .  S
O212        C214   1.287       .  A
O213       Zr227   2.455       .  S
O213        C214   1.291       .  A
C214        C257   1.488       .  S
O215       Zr224   2.458   1_565  S
O215        C217   1.290       .  A
O216       Zr996   2.430       .  S
O216        C217   1.286       .  A
C217        C282   1.475       .  S
O218       Zr221   2.451       .  S
O218        C220   1.292       .  A
O219       Zr227   2.409       .  S
O219        C220   1.281       .  A
C220        C262   1.479       .  S
Zr221       O222   2.436       .  S
Zr221       O223   2.434       .  S
Zr221       O229   2.361   1_545  S
Zr221       O230   2.365       .  S
Zr221       O233   2.361       .  S
Zr221       O999   2.370   1_545  S
O222        H242   0.990   1_545  S
O222        H247   0.990       .  S
O223        H243   0.990       .  S
Zr224       O225   2.436       .  S
Zr224       O226   2.436       .  S
Zr224       O230   2.382       .  S
Zr224       O229   2.366   1_545  S
Zr224       O232   2.381       .  S
Zr224      O1002   2.368   1_545  S
O225        H241   0.990       .  S
O226        H240   0.990   1_545  S
O226        H250   0.990       .  S
Zr227       O958   2.471   1_455  S
Zr227       O964   2.425   1_455  S
Zr227       O230   2.401       .  S
Zr227       O232   2.391       .  S
Zr227       O233   2.390       .  S
Zr227       O975   2.384   1_455  S
Zr228       O978   2.436       .  S
Zr228       O984   2.433       .  S
Zr228       O231   2.388       .  S
Zr228       O234   2.384       .  S
Zr228       O997   2.400       .  S
O229       Zr996   2.392       .  S
O229        H237   0.966       .  S
O231       Zr989   2.375   1_565  S
O232       Zr972   2.354   1_455  S
O232        H236   0.966       .  S
O233       Zr969   2.366   1_455  S
O233        H238   0.965       .  S
O234       Zr992   2.369   1_565  S
C251        C274   1.542       .  S
C251        C306   1.535       .  S
C251        C329   1.548       .  S
C251        C370   1.532       .  S
C252        C261   1.528       .  S
C252        C289   1.520       .  S
C252        C322   1.517       .  S
C252        C382   1.511       .  S
C253        C277   1.526       .  S
C253        C286   1.525       .  S
C253        C345   1.522       .  S
C253        C362   1.530       .  S
C254        C270   1.534       .  S
C254        C294   1.534       .  S
C254        C325   1.531       .  S
C254        C366   1.530       .  S
C255        C258   1.532       .  S
C255        C301   1.531       .  S
C255        C342   1.520       .  S
C255        C357   1.519       .  S
C256        C266   1.538       .  S
C256        C297   1.533       .  S
C256        C338   1.540       .  S
C256        C354   1.525       .  S
C257        C258   1.353       .  D
C257        H259   1.086       .  S
C258        H260   1.087       .  S
C261        C262   1.342       .  D
C261        H263   1.087       .  S
C262        H264   1.086       .  S
C265        C266   1.342       .  D
C265        H267   1.084       .  S
C266        H268   1.089       .  S
C269        C270   1.350       .  D
C269        H271   1.087       .  S
C270        H272   1.087       .  S
C273        C274   1.353       .  D
C273        H275   1.086       .  S
C274        H276   1.089       .  S
C277        C278   1.346       .  D
C277        H279   1.090       .  S
C278        H280   1.085       .  S
C281        C282   1.350       .  D
C281        H283   1.087       .  S
C282        H284   1.087       .  S
C285        C286   1.346       .  D
C285        H287   1.086       .  S
C286        H288   1.088       .  S
C289        C290   1.343       .  D
C289        H291   1.088       .  S
C290        H292   1.087       .  S
C293        C294   1.352       .  D
C293        H295   1.086       .  S
C294        H296   1.087       .  S
C297        C298   1.350       .  D
C297        H299   1.087       .  S
C298        H300   1.087       .  S
C301        C302   1.346       .  D
C301        H303   1.088       .  S
C302        H304   1.087       .  S
C305        C306   1.350       .  D
C305        H307   1.085       .  S
C306        H308   1.089       .  S
C309        C310   1.348       .  D
C309        H311   1.087       .  S
C310        H312   1.086       .  S
C313        C314   1.345       .  D
C313        H315   1.086       .  S
C314        H316   1.089       .  S
C317        C318   1.340       .  D
C317        H319   1.085       .  S
C318        H320   1.089       .  S
C321        C322   1.338       .  D
C321        H323   1.085       .  S
C322        H324   1.090       .  S
C325        C326   1.348       .  D
C325        H327   1.089       .  S
C326        H328   1.085       .  S
C329        C330   1.349       .  D
C329        H331   1.088       .  S
C330        H332   1.086       .  S
C333        C334   1.344       .  D
C333        H335   1.087       .  S
C334        H336   1.089       .  S
C337        C338   1.343       .  D
C337        H339   1.084       .  S
C338        H340   1.088       .  S
C341        C342   1.344       .  D
C341        H343   1.085       .  S
C342        H344   1.090       .  S
C345        C346   1.345       .  D
C345        H347   1.088       .  S
C346        H348   1.087       .  S
C349        C350   1.341       .  D
C349        H351   1.085       .  S
C350        H352   1.089       .  S
C353        C354   1.340       .  D
C353        H355   1.088       .  S
C354        H356   1.088       .  S
C357        C358   1.341       .  D
C357        H359   1.089       .  S
C358        H360   1.087       .  S
C361        C362   1.340       .  D
C361        H363   1.086       .  S
C362        H364   1.088       .  S
C365        C366   1.352       .  D
C365        H367   1.086       .  S
C366        H368   1.088       .  S
C369        C370   1.348       .  D
C369        H371   1.087       .  S
C370        H372   1.087       .  S
C373        C374   1.340       .  D
C373        H375   1.085       .  S
C374        H376   1.089       .  S
C377        C378   1.347       .  D
C377        H379   1.090       .  S
C378        H380   1.084       .  S
C381        C382   1.338       .  D
C381        H383   1.087       .  S
C382        H384   1.089       .  S
O385       Zr397   2.403       .  S
O385        C387   1.282       .  A
O386       Zr423   2.438       .  S
O386        C387   1.286       .  A
C387        C742   1.473       .  S
O388       Zr400   2.437       .  S
O388        C390   1.289       .  A
O389       Zr424   2.435       .  S
O389        C390   1.287       .  A
C390        C749   1.486       .  S
O391       Zr400   2.443       .  S
O391        C393   1.290       .  A
O392       Zr423   2.410       .  S
O392        C393   1.282       .  A
C393        C765   1.475       .  S
O394       Zr397   2.397       .  S
O394        C396   1.278       .  A
O395       Zr424   2.434       .  S
O395        C396   1.286       .  A
C396        C762   1.453       .  S
Zr397       O398   2.435       .  S
Zr397       O399   2.438       .  S
Zr397       O403   2.368       .  S
Zr397       O404   2.365       .  S
Zr397       O427   2.368       .  S
Zr397       O429   2.361       .  S
O398        H441   0.990       .  S
O399        H440   0.990       .  S
O399        H444   0.990       .  S
Zr400       O401   2.435       .  S
Zr400       O402   2.434       .  S
Zr400       O404   2.377       .  S
Zr400       O403   2.370       .  S
Zr400       O428   2.370       .  S
Zr400       O430   2.364       .  S
O401        H442   0.990       .  S
O401        H445   0.990       .  S
O402        H435   0.990       .  S
O403       Zr423   2.373       .  S
O404       Zr424   2.381       .  S
O404        H431   0.966       .  S
O405       Zr417   2.471       .  S
O405        C407   1.295       .  A
O406       Zr424   2.435       .  S
O406        C407   1.288       .  A
C407        C737   1.490       .  S
O408       Zr420   2.444       .  S
O408        C410   1.288       .  A
O409       Zr423   2.407       .  S
O409        C410   1.281       .  A
C410        C745   1.458       .  S
O411       Zr420   2.450       .  S
O411        C413   1.290       .  A
O412       Zr424   2.399       .  S
O412        C413   1.279       .  A
C413        C753   1.462       .  S
O414       Zr417   2.471       .  S
O414        C416   1.297       .  A
O415       Zr423   2.398       .  S
O415        C416   1.280       .  A
C416        C757   1.480       .  S
Zr417       O418   2.436       .  S
Zr417       O419   2.433       .  S
Zr417       O425   2.376       .  S
Zr417       O426   2.363       .  S
Zr417       O429   2.379       .  S
Zr417       O427   2.378       .  S
O418        H438   0.990       .  S
O418        H443   0.990       .  S
O419        H439   0.990       .  S
Zr420       O421   2.437       .  S
Zr420       O422   2.435       .  S
Zr420       O426   2.364       .  S
Zr420       O425   2.362       .  S
Zr420       O430   2.365       .  S
Zr420       O428   2.370       .  S
O421        H437   0.990       .  S
O422        H436   0.990       .  S
O422        H446   0.990       .  S
Zr423       O426   2.388       .  S
Zr423       O428   2.386       .  S
Zr423       O429   2.387       .  S
Zr424       O425   2.395       .  S
Zr424       O427   2.382       .  S
Zr424       O430   2.381       .  S
O425        H433   0.966       .  S
O428        H432   0.967       .  S
O429        H434   0.966       .  S
O447       Zr459   2.445       .  S
O447        C449   1.290       .  A
O448        C449   1.280       .  A
C449        C733   1.471       .  S
O450       Zr462   2.462       .  S
O450        C452   1.292       .  A
O451       Zr870   2.412   1_455  S
O451        C452   1.282       .  A
C452        C717   1.481       .  S
O453       Zr462   2.430       .  S
O453        C455   1.288       .  A
O454       Zr869   2.432   1_455  S
O454        C455   1.286       .  A
C455        C725   1.481       .  S
O456       Zr459   2.413       .  S
O456        C458   1.282       .  A
O457        C458   1.289       .  A
C458        C721   1.457       .  S
Zr459       O460   2.434       .  S
Zr459       O461   2.434       .  S
Zr459       O465   2.358       .  S
Zr459       O466   2.371       .  S
O460        H503   0.990       .  S
O461        H502   0.990       .  S
O461        H506   0.990       .  S
Zr462       O463   2.435       .  S
Zr462       O464   2.434       .  S
Zr462      O1234   2.355   1_455  S
Zr462      O1233   2.384   1_455  S
O463        H504   0.990       .  S
O463        H507   0.990       .  S
O464        H497   0.990       .  S
O465      Zr1230   2.374       .  S
O466      Zr1230   2.347       .  S
O466        H493   0.964       .  S
O467       Zr479   2.499       .  S
O467        C469   1.301       .  A
O468       Zr486   2.397       .  S
O468        C469   1.279       .  A
C469        C714   1.489       .  S
O470       Zr482   2.446       .  S
O470        C472   1.290       .  A
O471      Zr1253   2.421   1_455  S
O471        C472   1.283       .  A
C472        C705   1.473       .  S
O473       Zr482   2.452       .  S
O473        C475   1.292       .  A
O474      Zr1254   2.419   1_455  S
O474        C475   1.283       .  A
C475        C710   1.475       .  S
O476       Zr479   2.490       .  S
O476        C478   1.299       .  A
O477       Zr485   2.412       .  S
O477        C478   1.282       .  A
C478        C730   1.493       .  S
Zr479       O480   2.437       .  S
Zr479       O481   2.434       .  S
Zr479       O487   2.381       .  S
Zr479       O488   2.382       .  S
Zr479       O491   2.380       .  S
Zr479       O489   2.380       .  S
O480        H500   0.990       .  S
O480        H505   0.990       .  S
O481        H501   0.990       .  S
Zr482       O483   2.435       .  S
Zr482       O484   2.436       .  S
Zr482      O1256   2.372   1_455  S
Zr482      O1255   2.374   1_455  S
Zr482       O492   2.370       .  S
Zr482       O490   2.370       .  S
O483        H499   0.990       .  S
O484        H498   0.990       .  S
O484        H508   0.990       .  S
Zr485       O838   2.441       .  S
Zr485      O1239   2.419       .  S
Zr485       O488   2.383       .  S
Zr485      O1258   2.377       .  S
Zr485       O491   2.397       .  S
Zr486       O835   2.402       .  S
Zr486      O1242   2.411       .  S
Zr486       O487   2.389       .  S
Zr486       O489   2.383       .  S
Zr486      O1260   2.377       .  S
O487      Zr1250   2.374       .  S
O487        H495   0.967       .  S
O488      Zr1250   2.368       .  S
O490      Zr1253   2.388   1_455  S
O490        H494   0.966       .  S
O491        H496   0.965       .  S
O492      Zr1254   2.380   1_455  S
C509        C698   1.535       .  S
C509        C702   1.531       .  S
C509        C734   1.523       .  S
C509        C758   1.524       .  S
O510       Zr522   2.442       .  S
O510        C512   1.289       .  A
O511        C512   1.284       .  A
C512        C701   1.472       .  S
O513       Zr525   2.425       .  S
O513        C515   1.285       .  A
O514        C515   1.288       .  A
C515        C694   1.478       .  S
O516       Zr525   2.411   1_545  S
O516        C518   1.281       .  A
O517        C518   1.286       .  A
C518        C686   1.452       .  S
O519       Zr522   2.400   1_565  S
O519        C521   1.279       .  A
O520        C521   1.292       .  A
C521        C682   1.458       .  S
Zr522       O523   2.435       .  S
Zr522       O524   2.435       .  S
Zr522       O528   2.347       .  S
Zr522       O529   2.378   1_545  S
O523        H566   0.990       .  S
O524        H565   0.990       .  S
O524        H569   0.990   1_545  S
Zr525       O526   2.438       .  S
Zr525       O527   2.435       .  S
Zr525       O529   2.353       .  S
Zr525       O528   2.370   1_565  S
O526        H567   0.990       .  S
O526        H570   0.990       .  S
O527        H560   0.990       .  S
O529        H556   0.965       .  S
O530       Zr542   2.459       .  S
O530        C532   1.293       .  A
O531       Zr549   2.429       .  S
O531        C532   1.286       .  A
C532        C689   1.485       .  S
O533       Zr545   2.446   1_545  S
O533        C535   1.288       .  A
O534       Zr548   2.421       .  S
O534        C535   1.284       .  A
C535        C674   1.467       .  S
O536       Zr545   2.425       .  S
O536        C538   1.286       .  A
O537       Zr549   2.460       .  S
O537        C538   1.291       .  A
C538        C677   1.493       .  S
O539       Zr542   2.459   1_545  S
O539        C541   1.293       .  A
O540       Zr548   2.418       .  S
O540        C541   1.283       .  A
C541        C669   1.487       .  S
Zr542       O543   2.437       .  S
Zr542       O544   2.435   1_565  S
Zr542       O550   2.374       .  S
Zr542       O551   2.377   1_565  S
Zr542       O554   2.367   1_565  S
Zr542       O552   2.374       .  S
O543        H563   0.990       .  S
O543        H568   0.990   1_565  S
O544        H564   0.990       .  S
Zr545       O546   2.434       .  S
Zr545       O547   2.437       .  S
Zr545       O551   2.368   1_565  S
Zr545       O550   2.374       .  S
Zr545       O555   2.377       .  S
Zr545       O553   2.358   1_565  S
O546        H562   0.990       .  S
O547        H561   0.990       .  S
O547        H571   0.990       .  S
Zr548       O551   2.385       .  S
Zr548       O553   2.381       .  S
Zr548       O554   2.390       .  S
Zr549       O550   2.393       .  S
Zr549       O552   2.392       .  S
Zr549       O555   2.388       .  S
O550        H558   0.965       .  S
O553        H557   0.965       .  S
O554        H559   0.966       .  S
C572        C665   1.535       .  S
C572        C693   1.534       .  S
C572        C718   1.528       .  S
C572        C761   1.527       .  S
O573       Zr585   2.460       .  S
O573        C575   1.294       .  A
O574      Zr1379   2.427       .  S
O574        C575   1.285       .  A
C575        C662   1.481       .  S
O576       Zr588   2.470   1_565  S
O576        C578   1.294       .  A
O577       Zr612   2.438       .  S
O577        C578   1.289       .  A
C578        C649   1.493       .  S
O579       Zr588   2.461       .  S
O579        C581   1.294       .  A
O580      Zr1379   2.433       .  S
O580        C581   1.287       .  A
C581        C697   1.490       .  S
O582       Zr585   2.472   1_565  S
O582        C584   1.296       .  A
O583       Zr612   2.413       .  S
O583        C584   1.283       .  A
C584        C657   1.487       .  S
Zr585       O586   2.434       .  S
Zr585       O587   2.437       .  S
Zr585       O591   2.375       .  S
Zr585       O592   2.368   1_545  S
Zr585       O615   2.362   1_545  S
Zr585      O1385   2.377       .  S
O586        H629   0.990       .  S
O587        H628   0.990       .  S
O587        H632   0.990       .  S
Zr588       O589   2.438       .  S
Zr588       O590   2.433       .  S
Zr588       O592   2.373   1_545  S
Zr588       O591   2.378       .  S
Zr588      O1384   2.380       .  S
Zr588       O618   2.384   1_545  S
O589        H630   0.990   1_545  S
O589        H633   0.990       .  S
O590        H623   0.990       .  S
O591      Zr1379   2.399       .  S
O592       Zr612   2.393       .  S
O592        H619   0.966       .  S
O593       Zr605   2.453   1_565  S
O593        C595   1.289       .  A
O594      Zr1380   2.431       .  S
O594        C595   1.287       .  A
C595        C653   1.475       .  S
O596       Zr608   2.444       .  S
O596        C598   1.290       .  A
O597       Zr611   2.417       .  S
O597        C598   1.283       .  A
C598        C641   1.478       .  S
O599       Zr608   2.412   1_565  S
O599        C601   1.282       .  A
O600      Zr1380   2.470       .  S
O600        C601   1.295       .  A
C601        C666   1.470       .  S
O602       Zr605   2.432       .  S
O602        C604   1.288       .  A
O603       Zr611   2.428       .  S
O603        C604   1.285       .  A
C604        C646   1.481       .  S
Zr605       O606   2.436       .  S
Zr605       O607   2.434       .  S
Zr605       O613   2.356   1_545  S
Zr605       O614   2.375       .  S
Zr605       O617   2.370       .  S
Zr605      O1383   2.358   1_545  S
O606        H626   0.990   1_545  S
O606        H631   0.990       .  S
O607        H627   0.990       .  S
Zr608       O609   2.434       .  S
Zr608       O610   2.435       .  S
Zr608       O614   2.368       .  S
Zr608       O613   2.380   1_545  S
Zr608      O1386   2.379   1_545  S
Zr608       O616   2.359       .  S
O609        H625   0.990       .  S
O610        H624   0.990   1_545  S
O610        H634   0.990       .  S
Zr611      O1342   2.407   1_455  S
Zr611      O1348   2.431   1_455  S
Zr611      O1359   2.388   1_455  S
Zr611       O614   2.383       .  S
Zr611       O616   2.387       .  S
Zr611       O617   2.390       .  S
Zr612      O1362   2.431       .  S
Zr612      O1368   2.439       .  S
Zr612      O1381   2.386       .  S
Zr612       O615   2.389       .  S
Zr612       O618   2.383       .  S
O613      Zr1380   2.393       .  S
O613        H621   0.967       .  S
O615      Zr1373   2.366   1_565  S
O616      Zr1356   2.374   1_455  S
O616        H620   0.967       .  S
O617      Zr1353   2.361   1_455  S
O617        H622   0.967       .  S
O618      Zr1376   2.372   1_565  S
C635        C658   1.532       .  S
C635        C690   1.534       .  S
C635        C713   1.536       .  S
C635        C754   1.522       .  S
C636        C645   1.529       .  S
C636        C673   1.527       .  S
C636        C706   1.522       .  S
C636        C766   1.518       .  S
C637        C661   1.526       .  S
C637        C670   1.527       .  S
C637        C729   1.542       .  S
C637        C746   1.522       .  S
C638        C654   1.534       .  S
C638        C678   1.535       .  S
C638        C709   1.525       .  S
C638        C750   1.524       .  S
C639        C642   1.526       .  S
C639        C685   1.516       .  S
C639        C726   1.520       .  S
C639        C741   1.519       .  S
C640        C650   1.541       .  S
C640        C681   1.530       .  S
C640        C722   1.526       .  S
C640        C738   1.543       .  S
C641        C642   1.344       .  D
C641        H643   1.087       .  S
C642        H644   1.088       .  S
C645        C646   1.346       .  D
C645        H647   1.087       .  S
C646        H648   1.086       .  S
C649        C650   1.351       .  D
C649        H651   1.084       .  S
C650        H652   1.087       .  S
C653        C654   1.351       .  D
C653        H655   1.087       .  S
C654        H656   1.087       .  S
C657        C658   1.345       .  D
C657        H659   1.086       .  S
C658        H660   1.089       .  S
C661        C662   1.340       .  D
C661        H663   1.090       .  S
C662        H664   1.085       .  S
C665        C666   1.344       .  D
C665        H667   1.087       .  S
C666        H668   1.087       .  S
C669        C670   1.343       .  D
C669        H671   1.086       .  S
C670        H672   1.089       .  S
C673        C674   1.347       .  D
C673        H675   1.088       .  S
C674        H676   1.087       .  S
C677        C678   1.355       .  D
C677        H679   1.086       .  S
C678        H680   1.087       .  S
C681        C682   1.335       .  D
C681        H683   1.089       .  S
C682        H684   1.083       .  S
C685        C686   1.340       .  D
C685        H687   1.088       .  S
C686        H688   1.088       .  S
C689        C690   1.344       .  D
C689        H691   1.085       .  S
C690        H692   1.090       .  S
C693        C694   1.352       .  D
C693        H695   1.087       .  S
C694        H696   1.081       .  S
C697        C698   1.347       .  D
C697        H699   1.086       .  S
C698        H700   1.089       .  S
C701        C702   1.346       .  D
C701        H703   1.084       .  S
C702        H704   1.089       .  S
C705        C706   1.344       .  D
C705        H707   1.085       .  S
C706        H708   1.090       .  S
C709        C710   1.341       .  D
C709        H711   1.090       .  S
C710        H712   1.084       .  S
C713        C714   1.338       .  D
C713        H715   1.089       .  S
C714        H716   1.087       .  S
C717        C718   1.343       .  D
C717        H719   1.087       .  S
C718        H720   1.087       .  S
C721        C722   1.335       .  D
C721        H723   1.085       .  S
C722        H724   1.089       .  S
C725        C726   1.347       .  D
C725        H727   1.086       .  S
C726        H728   1.088       .  S
C729        C730   1.341       .  D
C729        H731   1.088       .  S
C730        H732   1.086       .  S
C733        C734   1.339       .  D
C733        H735   1.085       .  S
C734        H736   1.091       .  S
C737        C738   1.348       .  D
C737        H739   1.083       .  S
C738        H740   1.087       .  S
C741        C742   1.348       .  D
C741        H743   1.090       .  S
C742        H744   1.085       .  S
C745        C746   1.348       .  D
C745        H747   1.087       .  S
C746        H748   1.087       .  S
C749        C750   1.347       .  D
C749        H751   1.086       .  S
C750        H752   1.089       .  S
C753        C754   1.340       .  D
C753        H755   1.085       .  S
C754        H756   1.089       .  S
C757        C758   1.337       .  D
C757        H759   1.086       .  S
C758        H760   1.090       .  S
C761        C762   1.340       .  D
C761        H763   1.088       .  S
C762        H764   1.080       .  S
C765        C766   1.342       .  D
C765        H767   1.087       .  S
C766        H768   1.089       .  S
O769       Zr781   2.444       .  S
O769        C771   1.290       .  A
O770       Zr807   2.430       .  S
O770        C771   1.286       .  A
C771       C1126   1.479       .  S
O772       Zr784   2.445       .  S
O772        C774   1.290       .  A
O773       Zr808   2.423       .  S
O773        C774   1.284       .  A
C774       C1133   1.483       .  S
O775       Zr784   2.442       .  S
O775        C777   1.290       .  A
O776       Zr807   2.419       .  S
O776        C777   1.283       .  A
C777       C1149   1.480       .  S
O778       Zr781   2.451       .  S
O778        C780   1.291       .  A
O779       Zr808   2.396       .  S
O779        C780   1.278       .  A
C780       C1146   1.462       .  S
Zr781       O782   2.435       .  S
Zr781       O783   2.434       .  S
Zr781       O787   2.373       .  S
Zr781       O788   2.374       .  S
Zr781       O811   2.368       .  S
Zr781       O813   2.373       .  S
O782        H825   0.990       .  S
O783        H824   0.990       .  S
O783        H828   0.990       .  S
Zr784       O785   2.437       .  S
Zr784       O786   2.434       .  S
Zr784       O788   2.367       .  S
Zr784       O787   2.367       .  S
Zr784       O812   2.376       .  S
Zr784       O814   2.371       .  S
O785        H826   0.990       .  S
O785        H829   0.990       .  S
O786        H819   0.990       .  S
O787       Zr807   2.382       .  S
O788       Zr808   2.385       .  S
O788        H815   0.966       .  S
O789       Zr801   2.446       .  S
O789        C791   1.290       .  A
O790       Zr808   2.416       .  S
O790        C791   1.282       .  A
C791       C1121   1.481       .  S
O792       Zr804   2.423       .  S
O792        C794   1.283       .  A
O793       Zr807   2.426       .  S
O793        C794   1.285       .  A
C794       C1129   1.459       .  S
O795       Zr804   2.429       .  S
O795        C797   1.287       .  A
O796       Zr808   2.405       .  S
O796        C797   1.280       .  A
C797       C1137   1.463       .  S
O798       Zr801   2.452       .  S
O798        C800   1.290       .  A
O799       Zr807   2.430       .  S
O799        C800   1.287       .  A
C800       C1141   1.477       .  S
Zr801       O802   2.437       .  S
Zr801       O803   2.435       .  S
Zr801       O809   2.374       .  S
Zr801       O810   2.360       .  S
Zr801       O813   2.374       .  S
Zr801       O811   2.370       .  S
O802        H822   0.990       .  S
O802        H827   0.990       .  S
O803        H823   0.990       .  S
Zr804       O805   2.434       .  S
Zr804       O806   2.436       .  S
Zr804       O810   2.361       .  S
Zr804       O809   2.362       .  S
Zr804       O814   2.362       .  S
Zr804       O812   2.368       .  S
O805        H821   0.990       .  S
O806        H820   0.990       .  S
O806        H830   0.990       .  S
Zr807       O810   2.381       .  S
Zr807       O812   2.390       .  S
Zr807       O813   2.391       .  S
Zr808       O809   2.385       .  S
Zr808       O811   2.385       .  S
Zr808       O814   2.377       .  S
O809        H817   0.965       .  S
O812        H816   0.967       .  S
O813        H818   0.967       .  S
O831       Zr843   2.465       .  S
O831        C833   1.293       .  A
O832      Zr1253   2.428       .  S
O832        C833   1.285       .  A
C833       C1117   1.492       .  S
O834       Zr846   2.437       .  S
O834        C836   1.289       .  A
O835        C836   1.279       .  A
C836       C1101   1.472       .  S
O837       Zr846   2.446       .  S
O837        C839   1.290       .  A
O838        C839   1.287       .  A
C839       C1109   1.491       .  S
O840       Zr843   2.438       .  S
O840        C842   1.287       .  A
O841      Zr1254   2.414       .  S
O841        C842   1.283       .  A
C842       C1105   1.457       .  S
Zr843       O844   2.433       .  S
Zr843       O845   2.436       .  S
Zr843       O849   2.370       .  S
Zr843       O850   2.378       .  S
Zr843      O1257   2.381       .  S
Zr843      O1259   2.368       .  S
O844        H887   0.990       .  S
O845        H886   0.990       .  S
O845        H890   0.990       .  S
Zr846       O847   2.434       .  S
Zr846       O848   2.434       .  S
Zr846      O1258   2.370       .  S
Zr846      O1260   2.369       .  S
O847        H888   0.990       .  S
O847        H891   0.990       .  S
O848        H881   0.990       .  S
O849      Zr1253   2.381       .  S
O850      Zr1254   2.385       .  S
O850        H877   0.965       .  S
O851       Zr863   2.484       .  S
O851        C853   1.297       .  A
O852       Zr870   2.407   1_554  S
O852        C853   1.282       .  A
C853       C1098   1.488       .  S
O854       Zr866   2.462       .  S
O854        C856   1.293       .  A
O855        C856   1.280       .  A
C856       C1089   1.473       .  S
O857       Zr866   2.429       .  S
O857        C859   1.287       .  A
O858        C859   1.286       .  A
C859       C1094   1.475       .  S
O860       Zr863   2.474       .  S
O860        C862   1.296       .  A
O861       Zr869   2.414   1_554  S
O861        C862   1.283       .  A
C862       C1114   1.487       .  S
Zr863       O864   2.435       .  S
Zr863       O865   2.435       .  S
Zr863       O871   2.377       .  S
Zr863       O872   2.379       .  S
Zr863       O875   2.383   1_554  S
Zr863       O873   2.377   1_554  S
O864        H884   0.990       .  S
O864        H889   0.990       .  S
O865        H885   0.990       .  S
Zr866       O867   2.434       .  S
Zr866       O868   2.436       .  S
Zr866       O876   2.377       .  S
Zr866       O874   2.366       .  S
O867        H883   0.990       .  S
O868        H882   0.990       .  S
O868        H892   0.990       .  S
Zr869      O1216   2.411       .  S
Zr869      O1233   2.383       .  S
Zr869       O872   2.386   1_556  S
Zr869       O875   2.388       .  S
Zr870      O1225   2.430       .  S
Zr870      O1234   2.386       .  S
Zr870       O871   2.389   1_556  S
Zr870       O873   2.391       .  S
O871        H879   0.967       .  S
O873      Zr1227   2.378       .  S
O874      Zr1230   2.370   1_554  S
O874        H878   0.966       .  S
O875      Zr1227   2.365       .  S
O875        H880   0.966       .  S
O876      Zr1230   2.368   1_554  S
C893       C1082   1.539       .  S
C893       C1086   1.532       .  S
C893       C1118   1.541       .  S
C893       C1142   1.538       .  S
O894       Zr906   2.448       .  S
O894        C896   1.290       .  A
O895      Zr1316   2.434       .  S
O895        C896   1.286       .  A
C896       C1085   1.481       .  S
O897       Zr909   2.430       .  S
O897        C899   1.287       .  A
O898      Zr1317   2.435       .  S
O898        C899   1.287       .  A
C899       C1078   1.482       .  S
O900       Zr909   2.450   1_545  S
O900        C902   1.289       .  A
O901      Zr1316   2.428       .  S
O901        C902   1.285       .  A
C902       C1070   1.472       .  S
O903       Zr906   2.430   1_565  S
O903        C905   1.288       .  A
O904      Zr1317   2.433       .  S
O904        C905   1.286       .  A
C905       C1066   1.482       .  S
Zr906       O907   2.436       .  S
Zr906       O908   2.435       .  S
Zr906       O912   2.364       .  S
Zr906       O913   2.371   1_545  S
Zr906      O1320   2.372   1_545  S
Zr906      O1322   2.366       .  S
O907        H950   0.990   1_545  S
O908        H949   0.990       .  S
O908        H953   0.990       .  S
Zr909       O910   2.438       .  S
Zr909       O911   2.434   1_565  S
Zr909       O913   2.370       .  S
Zr909       O912   2.363   1_565  S
Zr909      O1321   2.358   1_565  S
Zr909      O1323   2.378       .  S
O910        H951   0.990       .  S
O910        H954   0.990       .  S
O911        H944   0.990   1_545  S
O912      Zr1316   2.383       .  S
O913      Zr1317   2.396       .  S
O913        H940   0.967       .  S
O914       Zr926   2.466   1_565  S
O914        C916   1.295       .  A
O915       Zr933   2.407       .  S
O915        C916   1.282       .  A
C916       C1073   1.479       .  S
O917       Zr929   2.443       .  S
O917        C919   1.288       .  A
O918       Zr932   2.440       .  S
O918        C919   1.288       .  A
C919       C1058   1.472       .  S
O920       Zr929   2.443   1_565  S
O920        C922   1.290       .  A
O921       Zr933   2.438       .  S
O921        C922   1.288       .  A
C922       C1061   1.486       .  S
O923       Zr926   2.457       .  S
O923        C925   1.292       .  A
O924       Zr932   2.431       .  S
O924        C925   1.287       .  A
C925       C1053   1.486       .  S
Zr926       O927   2.434   1_545  S
Zr926       O928   2.434       .  S
Zr926       O934   2.368   1_545  S
Zr926       O935   2.380       .  S
Zr926       O938   2.375       .  S
Zr926       O936   2.369   1_545  S
O927        H947   0.990   1_565  S
O927        H952   0.990   1_565  S
O928        H948   0.990       .  S
Zr929       O930   2.436       .  S
Zr929       O931   2.435   1_545  S
Zr929       O935   2.372       .  S
Zr929       O934   2.377   1_545  S
Zr929       O939   2.374   1_545  S
Zr929       O937   2.374       .  S
O930        H946   0.990   1_545  S
O931        H945   0.990       .  S
O931        H955   0.990       .  S
Zr932      O1279   2.431   1_554  S
Zr932      O1285   2.453   1_554  S
Zr932      O1296   2.385   1_554  S
Zr932       O935   2.391       .  S
Zr932       O937   2.385       .  S
Zr932       O938   2.395       .  S
Zr933      O1282   2.422   1_554  S
Zr933      O1288   2.437   1_554  S
Zr933      O1297   2.383   1_554  S
Zr933       O934   2.392       .  S
Zr933       O936   2.386       .  S
Zr933       O939   2.383       .  S
O934        H942   0.965       .  S
O936      Zr1290   2.365   1_564  S
O937      Zr1293   2.362   1_554  S
O937        H941   0.965       .  S
O938      Zr1290   2.371   1_554  S
O938        H943   0.966       .  S
O939      Zr1293   2.370   1_564  S
C956       C1049   1.528       .  S
C956       C1077   1.530       .  S
C956       C1102   1.512       .  S
C956       C1145   1.518       .  S
O957       Zr969   2.414       .  S
O957        C959   1.281       .  A
O958        C959   1.294       .  A
C959       C1046   1.474       .  S
O960       Zr972   2.434   1_565  S
O960        C962   1.289       .  A
O961       Zr996   2.444   1_655  S
O961        C962   1.289       .  A
C962       C1033   1.481       .  S
O963       Zr972   2.472       .  S
O963        C965   1.295       .  A
O964        C965   1.285       .  A
C965       C1081   1.495       .  S
O966       Zr969   2.431   1_565  S
O966        C968   1.288       .  A
O967       Zr996   2.421   1_655  S
O967        C968   1.284       .  A
C968       C1041   1.479       .  S
Zr969       O970   2.434   1_545  S
Zr969       O971   2.438   1_545  S
Zr969       O975   2.380       .  S
Zr969       O976   2.360   1_545  S
Zr969       O999   2.353   1_645  S
O970       H1013   0.990       .  S
O971       H1012   0.990   1_565  S
O971       H1016   0.990       .  S
Zr972       O973   2.435   1_545  S
Zr972       O974   2.434       .  S
Zr972       O976   2.380   1_545  S
Zr972       O975   2.372       .  S
Zr972      O1002   2.387   1_645  S
O973       H1014   0.990   1_565  S
O973       H1017   0.990   1_565  S
O974       H1007   0.990       .  S
O976       Zr996   2.392   1_655  S
O976       H1003   0.966       .  S
O977       Zr989   2.432   1_565  S
O977        C979   1.286       .  A
O978        C979   1.288       .  A
C979       C1037   1.465       .  S
O980       Zr992   2.438       .  S
O980        C982   1.290       .  A
O981       Zr995   2.447       .  S
O981        C982   1.289       .  A
C982       C1025   1.489       .  S
O983       Zr992   2.445   1_565  S
O983        C985   1.288       .  A
O984        C985   1.288       .  A
C985       C1050   1.470       .  S
O986       Zr989   2.455       .  S
O986        C988   1.292       .  A
O987       Zr995   2.423       .  S
O987        C988   1.284       .  A
C988       C1030   1.487       .  S
Zr989       O990   2.437       .  S
Zr989       O991   2.435       .  S
Zr989       O997   2.373   1_545  S
Zr989       O998   2.362       .  S
Zr989      O1001   2.363       .  S
O990       H1010   0.990   1_545  S
O990       H1015   0.990       .  S
O991       H1011   0.990       .  S
Zr992       O993   2.435       .  S
Zr992       O994   2.436       .  S
Zr992       O998   2.371       .  S
Zr992       O997   2.368   1_545  S
Zr992      O1000   2.373       .  S
O993       H1009   0.990       .  S
O994       H1008   0.990   1_545  S
O994       H1018   0.990       .  S
Zr995       O998   2.382       .  S
Zr995      O1000   2.388       .  S
Zr995      O1001   2.392       .  S
Zr996       O999   2.384       .  S
Zr996      O1002   2.392       .  S
O997       H1005   0.965       .  S
O1000      H1004   0.965       .  S
O1001      H1006   0.965       .  S
C1019      C1042   1.523       .  S
C1019      C1074   1.529       .  S
C1019      C1097   1.533       .  S
C1019      C1138   1.521       .  S
C1020      C1029   1.536       .  S
C1020      C1057   1.532       .  S
C1020      C1090   1.526       .  S
C1020      C1150   1.520       .  S
C1021      C1045   1.538       .  S
C1021      C1054   1.532       .  S
C1021      C1113   1.539       .  S
C1021      C1130   1.525       .  S
C1022      C1038   1.526       .  S
C1022      C1062   1.532       .  S
C1022      C1093   1.522       .  S
C1022      C1134   1.523       .  S
C1023      C1026   1.534       .  S
C1023      C1069   1.532       .  S
C1023      C1110   1.531       .  S
C1023      C1125   1.528       .  S
C1024      C1034   1.526       .  S
C1024      C1065   1.521       .  S
C1024      C1106   1.520       .  S
C1024      C1122   1.527       .  S
C1025      C1026   1.349       .  D
C1025      H1027   1.086       .  S
C1026      H1028   1.087       .  S
C1029      C1030   1.347       .  D
C1029      H1031   1.087       .  S
C1030      H1032   1.086       .  S
C1033      C1034   1.346       .  D
C1033      H1035   1.085       .  S
C1034      H1036   1.089       .  S
C1037      C1038   1.346       .  D
C1037      H1039   1.087       .  S
C1038      H1040   1.088       .  S
C1041      C1042   1.347       .  D
C1041      H1043   1.085       .  S
C1042      H1044   1.089       .  S
C1045      C1046   1.341       .  D
C1045      H1047   1.089       .  S
C1046      H1048   1.083       .  S
C1049      C1050   1.347       .  D
C1049      H1051   1.088       .  S
C1050      H1052   1.087       .  S
C1053      C1054   1.349       .  D
C1053      H1055   1.087       .  S
C1054      H1056   1.087       .  S
C1057      C1058   1.347       .  D
C1057      H1059   1.087       .  S
C1058      H1060   1.087       .  S
C1061      C1062   1.348       .  D
C1061      H1063   1.086       .  S
C1062      H1064   1.088       .  S
C1065      C1066   1.348       .  D
C1065      H1067   1.088       .  S
C1066      H1068   1.086       .  S
C1069      C1070   1.352       .  D
C1069      H1071   1.087       .  S
C1070      H1072   1.087       .  S
C1073      C1074   1.339       .  D
C1073      H1075   1.085       .  S
C1074      H1076   1.090       .  S
C1077      C1078   1.350       .  D
C1077      H1079   1.087       .  S
C1078      H1080   1.086       .  S
C1081      C1082   1.346       .  D
C1081      H1083   1.084       .  S
C1082      H1084   1.089       .  S
C1085      C1086   1.346       .  D
C1085      H1087   1.085       .  S
C1086      H1088   1.090       .  S
C1089      C1090   1.341       .  D
C1089      H1091   1.084       .  S
C1090      H1092   1.090       .  S
C1093      C1094   1.345       .  D
C1093      H1095   1.090       .  S
C1094      H1096   1.085       .  S
C1097      C1098   1.341       .  D
C1097      H1099   1.089       .  S
C1098      H1100   1.087       .  S
C1101      C1102   1.339       .  D
C1101      H1103   1.087       .  S
C1102      H1104   1.089       .  S
C1105      C1106   1.344       .  D
C1105      H1107   1.087       .  S
C1106      H1108   1.088       .  S
C1109      C1110   1.349       .  D
C1109      H1111   1.086       .  S
C1110      H1112   1.089       .  S
C1113      C1114   1.343       .  D
C1113      H1115   1.087       .  S
C1114      H1116   1.084       .  S
C1117      C1118   1.346       .  D
C1117      H1119   1.086       .  S
C1118      H1120   1.087       .  S
C1121      C1122   1.343       .  D
C1121      H1123   1.086       .  S
C1122      H1124   1.087       .  S
C1125      C1126   1.345       .  D
C1125      H1127   1.090       .  S
C1126      H1128   1.085       .  S
C1129      C1130   1.344       .  D
C1129      H1131   1.088       .  S
C1130      H1132   1.088       .  S
C1133      C1134   1.345       .  D
C1133      H1135   1.086       .  S
C1134      H1136   1.089       .  S
C1137      C1138   1.343       .  D
C1137      H1139   1.085       .  S
C1138      H1140   1.090       .  S
C1141      C1142   1.351       .  D
C1141      H1143   1.086       .  S
C1142      H1144   1.089       .  S
C1145      C1146   1.338       .  D
C1145      H1147   1.090       .  S
C1146      H1148   1.084       .  S
C1149      C1150   1.343       .  D
C1149      H1151   1.086       .  S
C1150      H1152   1.089       .  S
O1153     Zr1165   2.421       .  S
O1153      C1155   1.285       .  A
O1154     Zr1191   2.429       .  S
O1154      C1155   1.285       .  A
C1155      C1510   1.474       .  S
O1156     Zr1168   2.455       .  S
O1156      C1158   1.292       .  A
O1157     Zr1192   2.406       .  S
O1157      C1158   1.281       .  A
C1158      C1517   1.478       .  S
O1159     Zr1168   2.438       .  S
O1159      C1161   1.289       .  A
O1160     Zr1191   2.430       .  S
O1160      C1161   1.286       .  A
C1161      C1533   1.481       .  S
O1162     Zr1165   2.398       .  S
O1162      C1164   1.279       .  A
O1163     Zr1192   2.437       .  S
O1163      C1164   1.288       .  A
C1164      C1530   1.453       .  S
Zr1165     O1166   2.434       .  S
Zr1165     O1167   2.438       .  S
Zr1165     O1171   2.363       .  S
Zr1165     O1172   2.378       .  S
Zr1165     O1195   2.370       .  S
Zr1165     O1197   2.358       .  S
O1166      H1209   0.990       .  S
O1167      H1208   0.990       .  S
O1167      H1212   0.990       .  S
Zr1168     O1169   2.435       .  S
Zr1168     O1170   2.435       .  S
Zr1168     O1172   2.367       .  S
Zr1168     O1171   2.371       .  S
Zr1168     O1196   2.381       .  S
Zr1168     O1198   2.364       .  S
O1169      H1210   0.990       .  S
O1169      H1213   0.990       .  S
O1170      H1203   0.990       .  S
O1171     Zr1191   2.379       .  S
O1172     Zr1192   2.389       .  S
O1172      H1199   0.966       .  S
O1173     Zr1185   2.465       .  S
O1173      C1175   1.294       .  A
O1174     Zr1192   2.416       .  S
O1174      C1175   1.283       .  A
C1175      C1505   1.487       .  S
O1176     Zr1188   2.432       .  S
O1176      C1178   1.285       .  A
O1177     Zr1191   2.413       .  S
O1177      C1178   1.283       .  A
C1178      C1513   1.457       .  S
O1179     Zr1188   2.415       .  S
O1179      C1181   1.285       .  A
O1180     Zr1192   2.433       .  S
O1180      C1181   1.285       .  A
C1181      C1521   1.474       .  S
O1182     Zr1185   2.442       .  S
O1182      C1184   1.288       .  A
O1183     Zr1191   2.429       .  S
O1183      C1184   1.287       .  A
C1184      C1525   1.470       .  S
Zr1185     O1186   2.435       .  S
Zr1185     O1187   2.436       .  S
Zr1185     O1193   2.367       .  S
Zr1185     O1194   2.367       .  S
Zr1185     O1197   2.381       .  S
Zr1185     O1195   2.360       .  S
O1186      H1206   0.990       .  S
O1186      H1211   0.990       .  S
O1187      H1207   0.990       .  S
Zr1188     O1189   2.435       .  S
Zr1188     O1190   2.434       .  S
Zr1188     O1194   2.354       .  S
Zr1188     O1193   2.369       .  S
Zr1188     O1198   2.365       .  S
Zr1188     O1196   2.357       .  S
O1189      H1205   0.990       .  S
O1190      H1204   0.990       .  S
O1190      H1214   0.990       .  S
Zr1191     O1194   2.385       .  S
Zr1191     O1196   2.391       .  S
Zr1191     O1197   2.391       .  S
Zr1192     O1193   2.390       .  S
Zr1192     O1195   2.383       .  S
Zr1192     O1198   2.383       .  S
O1193      H1201   0.966       .  S
O1196      H1200   0.966       .  S
O1197      H1202   0.966       .  S
O1215     Zr1227   2.461       .  S
O1215      C1217   1.293       .  A
O1216      C1217   1.281       .  A
C1217      C1501   1.483       .  S
O1218     Zr1230   2.461       .  S
O1218      C1220   1.292       .  A
O1219      C1220   1.279       .  A
C1220      C1485   1.469       .  S
O1221     Zr1230   2.433       .  S
O1221      C1223   1.289       .  A
O1222      C1223   1.285       .  A
C1223      C1493   1.483       .  S
O1224     Zr1227   2.441       .  S
O1224      C1226   1.287       .  A
O1225      C1226   1.286       .  A
C1226      C1489   1.464       .  S
Zr1227     O1228   2.435       .  S
Zr1227     O1229   2.435       .  S
Zr1227     O1233   2.372       .  S
Zr1227     O1234   2.378       .  S
O1228      H1271   0.990       .  S
O1229      H1270   0.990       .  S
O1229      H1274   0.990       .  S
Zr1230     O1231   2.435       .  S
Zr1230     O1232   2.434       .  S
O1231      H1272   0.990       .  S
O1231      H1275   0.990       .  S
O1232      H1265   0.990       .  S
O1234      H1261   0.965       .  S
O1235     Zr1247   2.488       .  S
O1235      C1237   1.298       .  A
O1236     Zr1254   2.422       .  S
O1236      C1237   1.284       .  A
C1237      C1482   1.498       .  S
O1238     Zr1250   2.456       .  S
O1238      C1240   1.292       .  A
O1239      C1240   1.283       .  A
C1240      C1473   1.478       .  S
O1241     Zr1250   2.441       .  S
O1241      C1243   1.289       .  A
O1242      C1243   1.281       .  A
C1243      C1478   1.470       .  S
O1244     Zr1247   2.471       .  S
O1244      C1246   1.296       .  A
O1245     Zr1253   2.411       .  S
O1245      C1246   1.283       .  A
C1246      C1498   1.484       .  S
Zr1247     O1248   2.436       .  S
Zr1247     O1249   2.435       .  S
Zr1247     O1255   2.374       .  S
Zr1247     O1256   2.381       .  S
Zr1247     O1259   2.386       .  S
Zr1247     O1257   2.376       .  S
O1248      H1268   0.990       .  S
O1248      H1273   0.990       .  S
O1249      H1269   0.990       .  S
Zr1250     O1251   2.435       .  S
Zr1250     O1252   2.437       .  S
Zr1250     O1260   2.371       .  S
Zr1250     O1258   2.366       .  S
O1251      H1267   0.990       .  S
O1252      H1266   0.990       .  S
O1252      H1276   0.990       .  S
Zr1253     O1256   2.391       .  S
Zr1253     O1259   2.390       .  S
Zr1254     O1255   2.386       .  S
Zr1254     O1257   2.388       .  S
O1255      H1263   0.967       .  S
O1258      H1262   0.965       .  S
O1259      H1264   0.965       .  S
C1277      C1466   1.530       .  S
C1277      C1470   1.527       .  S
C1277      C1502   1.533       .  S
C1277      C1526   1.531       .  S
O1278     Zr1290   2.437       .  S
O1278      C1280   1.289       .  A
O1279      C1280   1.286       .  A
C1280      C1469   1.477       .  S
O1281     Zr1293   2.424   1_565  S
O1281      C1283   1.285       .  A
O1282      C1283   1.284       .  A
C1283      C1462   1.474       .  S
O1284     Zr1293   2.422       .  S
O1284      C1286   1.283       .  A
O1285      C1286   1.290       .  A
C1286      C1454   1.470       .  S
O1287     Zr1290   2.439   1_565  S
O1287      C1289   1.289       .  A
O1288      C1289   1.287       .  A
C1289      C1450   1.486       .  S
Zr1290     O1291   2.434       .  S
Zr1290     O1292   2.437       .  S
Zr1290     O1296   2.365       .  S
Zr1290     O1297   2.370   1_545  S
O1291      H1334   0.990   1_545  S
O1292      H1333   0.990       .  S
O1292      H1337   0.990       .  S
Zr1293     O1294   2.441   1_545  S
Zr1293     O1295   2.435       .  S
Zr1293     O1297   2.363   1_545  S
Zr1293     O1296   2.367       .  S
O1294      H1335   0.990   1_565  S
O1294      H1338   0.990       .  S
O1295      H1328   0.990   1_545  S
O1297      H1324   0.966       .  S
O1298     Zr1310   2.471   1_565  S
O1298      C1300   1.294       .  A
O1299     Zr1317   2.441       .  S
O1299      C1300   1.289       .  A
C1300      C1457   1.497       .  S
O1301     Zr1313   2.446   1_545  S
O1301      C1303   1.288       .  A
O1302     Zr1316   2.437       .  S
O1302      C1303   1.287       .  A
C1303      C1442   1.473       .  S
O1304     Zr1313   2.444       .  S
O1304      C1306   1.289       .  A
O1305     Zr1317   2.438       .  S
O1305      C1306   1.287       .  A
C1306      C1445   1.488       .  S
O1307     Zr1310   2.463       .  S
O1307      C1309   1.294       .  A
O1308     Zr1316   2.402       .  S
O1308      C1309   1.281       .  A
C1309      C1437   1.477       .  S
Zr1310     O1311   2.434   1_545  S
Zr1310     O1312   2.434       .  S
Zr1310     O1318   2.372   1_545  S
Zr1310     O1319   2.384       .  S
Zr1310     O1322   2.376       .  S
Zr1310     O1320   2.374   1_545  S
O1311      H1331   0.990       .  S
O1311      H1336   0.990   1_565  S
O1312      H1332   0.990       .  S
Zr1313     O1314   2.436       .  S
Zr1313     O1315   2.437       .  S
Zr1313     O1319   2.376   1_565  S
Zr1313     O1318   2.377       .  S
Zr1313     O1323   2.374       .  S
Zr1313     O1321   2.376   1_565  S
O1314      H1330   0.990       .  S
O1315      H1329   0.990       .  S
O1315      H1339   0.990       .  S
Zr1316     O1319   2.393       .  S
Zr1316     O1321   2.384       .  S
Zr1316     O1322   2.394       .  S
Zr1317     O1318   2.391       .  S
Zr1317     O1320   2.387       .  S
Zr1317     O1323   2.391       .  S
O1318      H1326   0.965       .  S
O1321      H1325   0.966       .  S
O1322      H1327   0.966       .  S
C1340      C1433   1.527       .  S
C1340      C1461   1.530       .  S
C1340      C1486   1.520       .  S
C1340      C1529   1.523       .  S
O1341     Zr1353   2.443       .  S
O1341      C1343   1.289       .  A
O1342      C1343   1.280       .  A
C1343      C1430   1.469       .  S
O1344     Zr1356   2.451   1_565  S
O1344      C1346   1.291       .  A
O1345     Zr1380   2.442   1_655  S
O1345      C1346   1.289       .  A
C1346      C1417   1.487       .  S
O1347     Zr1356   2.443       .  S
O1347      C1349   1.291       .  A
O1348      C1349   1.286       .  A
C1349      C1465   1.486       .  S
O1350     Zr1353   2.420   1_565  S
O1350      C1352   1.283       .  A
O1351     Zr1380   2.464   1_655  S
O1351      C1352   1.294       .  A
C1352      C1425   1.478       .  S
Zr1353     O1354   2.436       .  S
Zr1353     O1355   2.439       .  S
Zr1353     O1359   2.357       .  S
Zr1353     O1360   2.374   1_545  S
Zr1353     O1383   2.369   1_645  S
O1354      H1397   0.990       .  S
O1355      H1396   0.990       .  S
O1355      H1400   0.990       .  S
Zr1356     O1357   2.437       .  S
Zr1356     O1358   2.434       .  S
Zr1356     O1360   2.373   1_545  S
Zr1356     O1359   2.376       .  S
Zr1356     O1386   2.372   1_645  S
O1357      H1398   0.990   1_545  S
O1357      H1401   0.990       .  S
O1358      H1391   0.990   1_545  S
O1360     Zr1380   2.398   1_655  S
O1360      H1387   0.966       .  S
O1361     Zr1373   2.435   1_565  S
O1361      C1363   1.286       .  A
O1362      C1363   1.286       .  A
C1363      C1421   1.466       .  S
O1364     Zr1376   2.416       .  S
O1364      C1366   1.284       .  A
O1365     Zr1379   2.459       .  S
O1365      C1366   1.291       .  A
C1366      C1409   1.488       .  S
O1367     Zr1376   2.417   1_565  S
O1367      C1369   1.282       .  A
O1368      C1369   1.288       .  A
C1369      C1434   1.462       .  S
O1370     Zr1373   2.442       .  S
O1370      C1372   1.289       .  A
O1371     Zr1379   2.435       .  S
O1371      C1372   1.287       .  A
C1372      C1414   1.487       .  S
Zr1373     O1374   2.434       .  S
Zr1373     O1375   2.435       .  S
Zr1373     O1381   2.365   1_545  S
Zr1373     O1382   2.370       .  S
Zr1373     O1385   2.357       .  S
O1374      H1394   0.990       .  S
O1374      H1399   0.990       .  S
O1375      H1395   0.990       .  S
Zr1376     O1377   2.433       .  S
Zr1376     O1378   2.435       .  S
Zr1376     O1382   2.371       .  S
Zr1376     O1381   2.370   1_545  S
Zr1376     O1384   2.368       .  S
O1377      H1393   0.990       .  S
O1378      H1392   0.990       .  S
O1378      H1402   0.990       .  S
Zr1379     O1382   2.379       .  S
Zr1379     O1384   2.388       .  S
Zr1379     O1385   2.396       .  S
Zr1380     O1383   2.387       .  S
Zr1380     O1386   2.392       .  S
O1381      H1389   0.966       .  S
O1384      H1388   0.966       .  S
O1385      H1390   0.965       .  S
C1403      C1426   1.537       .  S
C1403      C1458   1.545       .  S
C1403      C1481   1.543       .  S
C1403      C1522   1.519       .  S
C1404      C1413   1.534       .  S
C1404      C1441   1.532       .  S
C1404      C1474   1.528       .  S
C1404      C1534   1.521       .  S
C1405      C1429   1.516       .  S
C1405      C1438   1.522       .  S
C1405      C1497   1.535       .  S
C1405      C1514   1.519       .  S
C1406      C1422   1.527       .  S
C1406      C1446   1.534       .  S
C1406      C1477   1.517       .  S
C1406      C1518   1.521       .  S
C1407      C1410   1.530       .  S
C1407      C1453   1.530       .  S
C1407      C1494   1.522       .  S
C1407      C1509   1.520       .  S
C1408      C1418   1.531       .  S
C1408      C1449   1.526       .  S
C1408      C1490   1.526       .  S
C1408      C1506   1.534       .  S
C1409      C1410   1.355       .  D
C1409      H1411   1.086       .  S
C1410      H1412   1.087       .  S
C1413      C1414   1.349       .  D
C1413      H1415   1.087       .  S
C1414      H1416   1.086       .  S
C1417      C1418   1.348       .  D
C1417      H1419   1.085       .  S
C1418      H1420   1.089       .  S
C1421      C1422   1.346       .  D
C1421      H1423   1.087       .  S
C1422      H1424   1.087       .  S
C1425      C1426   1.342       .  D
C1425      H1427   1.086       .  S
C1426      H1428   1.090       .  S
C1429      C1430   1.340       .  D
C1429      H1431   1.091       .  S
C1430      H1432   1.085       .  S
C1433      C1434   1.341       .  D
C1433      H1435   1.088       .  S
C1434      H1436   1.087       .  S
C1437      C1438   1.339       .  D
C1437      H1439   1.087       .  S
C1438      H1440   1.089       .  S
C1441      C1442   1.347       .  D
C1441      H1443   1.088       .  S
C1442      H1444   1.087       .  S
C1445      C1446   1.349       .  D
C1445      H1447   1.086       .  S
C1446      H1448   1.087       .  S
C1449      C1450   1.349       .  D
C1449      H1451   1.088       .  S
C1450      H1452   1.086       .  S
C1453      C1454   1.346       .  D
C1453      H1455   1.087       .  S
C1454      H1456   1.087       .  S
C1457      C1458   1.352       .  D
C1457      H1459   1.086       .  S
C1458      H1460   1.086       .  S
C1461      C1462   1.348       .  D
C1461      H1463   1.087       .  S
C1462      H1464   1.083       .  S
C1465      C1466   1.347       .  D
C1465      H1467   1.083       .  S
C1466      H1468   1.088       .  S
C1469      C1470   1.346       .  D
C1469      H1471   1.085       .  S
C1470      H1472   1.090       .  S
C1473      C1474   1.344       .  D
C1473      H1475   1.085       .  S
C1474      H1476   1.090       .  S
C1477      C1478   1.340       .  D
C1477      H1479   1.090       .  S
C1478      H1480   1.085       .  S
C1481      C1482   1.345       .  D
C1481      H1483   1.089       .  S
C1482      H1484   1.084       .  S
C1485      C1486   1.339       .  D
C1485      H1487   1.087       .  S
C1486      H1488   1.088       .  S
C1489      C1490   1.345       .  D
C1489      H1491   1.087       .  S
C1490      H1492   1.088       .  S
C1493      C1494   1.347       .  D
C1493      H1495   1.086       .  S
C1494      H1496   1.089       .  S
C1497      C1498   1.341       .  D
C1497      H1499   1.088       .  S
C1498      H1500   1.087       .  S
C1501      C1502   1.343       .  D
C1501      H1503   1.087       .  S
C1502      H1504   1.087       .  S
C1505      C1506   1.343       .  D
C1505      H1507   1.086       .  S
C1506      H1508   1.087       .  S
C1509      C1510   1.345       .  D
C1509      H1511   1.090       .  S
C1510      H1512   1.085       .  S
C1513      C1514   1.342       .  D
C1513      H1515   1.087       .  S
C1514      H1516   1.088       .  S
C1517      C1518   1.340       .  D
C1517      H1519   1.087       .  S
C1518      H1520   1.089       .  S
C1521      C1522   1.346       .  D
C1521      H1523   1.085       .  S
C1522      H1524   1.091       .  S
C1525      C1526   1.347       .  D
C1525      H1527   1.085       .  S
C1526      H1528   1.089       .  S
C1529      C1530   1.339       .  D
C1529      H1531   1.089       .  S
C1530      H1532   1.081       .  S
C1533      C1534   1.346       .  D
C1533      H1535   1.086       .  S
C1534      H1536   1.089       .  S
