geometry optimzed in LAMMPS
_audit_creation_date              2020-11-30 
_audit_creation_method            'lammps2cif' 
_symmetry_space_group_name_H-M    'P1' 
_symmetry_Int_Tables_number       1 
_symmetry_cell_setting            triclinic 
loop_ 
_symmetry_equiv_pos_as_xyz 
  x,y,z 
_cell_length_a                    21.513879151141534 
_cell_length_b                    21.810922376524665 
_cell_length_c                    43.95272615311437 
_cell_angle_alpha                 90.46824863987385 
_cell_angle_beta                  90.39243012933996 
_cell_angle_gamma                 88.99532254843491 
loop_ 
_atom_site_label 
_atom_site_type_symbol 
_atom_site_fract_x 
_atom_site_fract_y 
_atom_site_fract_z 
_atom_site_charge 
O1          O  0.44480562  0.36296882  0.23468022    -0.81000
O2          O  0.56454735  0.59993926  0.21916922    -0.81020
O3          O  0.42814841  0.55806900  0.20657067    -0.81030
O4          O  0.57897269  0.46862690  0.20454173    -0.80970
O5          O  0.44564929  0.63155638  0.23826994    -0.81090
O6          O  0.57092198  0.38278318  0.22983253    -0.81010
O7          O  0.65468375  0.55453375  0.22864394    -0.81000
O8          O  0.41660819  0.43901696  0.20518930    -0.81040
C9          C  0.41594516  0.38328223  0.21154532     1.08690
C10         C  0.62401615  0.59549888  0.21468769     1.08580
C11         C  0.42160247  0.61328367  0.21357674     1.08710
C12         C  0.58971277  0.41172871  0.20660071     1.08590
O13         O  0.56586002  0.42733088  0.29399520    -0.81000
O14         O  0.46414441  0.57433478  0.29646172    -0.81080
O15         O  0.36818380  0.43734241  0.26660570    -0.81010
O16         O  0.59718132  0.56718451  0.28308275    -0.80990
O17         O  0.54743241  0.65371965  0.27345288    -0.81040
O18         O  0.44661737  0.40913105  0.29579450    -0.81010
O19         O  0.63769554  0.45269663  0.26320914    -0.80970
O20         O  0.37954141  0.56199263  0.26958376    -0.81040
Co21       Co  0.50706604  0.40154912  0.26303107     1.51530
Co22       Co  0.51340890  0.58045270  0.25868759     1.51690
Co23       Co  0.40377941  0.49920669  0.23737919     1.51570
Co24       Co  0.58204401  0.51664578  0.24290579     1.51470
O25         O  0.49362349  0.49092502  0.25073729    -1.42930
C26         C  0.62148083  0.42442040  0.28671996     1.08620
C27         C  0.40574027  0.57986612  0.29410593     1.08710
C28         C  0.38947387  0.41016843  0.29001971     1.08650
C29         C  0.59024561  0.62568635  0.28769368     1.08620
O30         O  0.93722088  0.53992474  0.43221069    -0.81000
O31         O  0.06430970  0.56770899  0.04935921    -0.81020
O32         O  0.92837375  0.59761574  0.02785755    -0.81030
O33         O  0.07736597  0.59395956  0.48362679    -0.80970
O34         O  0.94636819  0.53723282  0.06517305    -0.81090
O35         O  0.06573062  0.53979207  0.44175303    -0.81010
O36         O  0.15218877  0.54435284  0.02647800    -0.81000
O37         O  0.90718148  0.59911752  0.47006987    -0.81040
C38         C  0.90813962  0.58710436  0.44220388     1.08690
C39         C  0.12364963  0.57535063  0.04661462     1.08580
C40         C  0.92238825  0.58639331  0.05522339     1.08710
C41         C  0.08751774  0.58699143  0.45549725     1.08590
O42         O  0.05159031  0.41360366  0.46758374    -0.81000
O43         O  0.95655784  0.41562527  0.03905669    -0.81080
O44         O  0.85597677  0.47797024  0.46978418    -0.81010
O45         O  0.09169392  0.43664631  0.03323539    -0.80990
O46         O  0.04678612  0.45785447  0.07705738    -0.81040
O47         O  0.93302767  0.41718439  0.45609044    -0.81010
O48         O  0.12874440  0.47094528  0.47705806    -0.80970
O49         O  0.87224432  0.47275658  0.03259458    -0.81040
Co50       Co  0.99704015  0.47871360  0.45216122     1.51530
Co51       Co  0.01004738  0.48943070  0.04060132     1.51690
Co52       Co  0.89679828  0.53545117  0.50027709     1.51570
Co53       Co  0.07743451  0.51776483  0.50824417     1.51470
O54         O  0.98672618  0.50583841  0.49615416    -1.42930
C55         C  0.10787963  0.42309360  0.46459507     1.08620
C56         C  0.89858011  0.42377640  0.04256772     1.08710
C57         C  0.87636270  0.43120309  0.45527279     1.08650
C58         C  0.08669316  0.42669444  0.06212347     1.08620
C59         C  0.74326799  0.25718186  0.37454019    -0.03350
O60         O  0.52454079  0.06177846  0.43028973    -0.81000
O61         O  0.56775039  0.93968563  0.04619815    -0.81020
O62         O  0.58960843  0.07928363  0.02576992    -0.81030
O63         O  0.59165429  0.92536634  0.47866346    -0.80970
O64         O  0.52931339  0.05719858  0.06255474    -0.81090
O65         O  0.53311441  0.93576602  0.43785814    -0.81010
O66         O  0.54935130  0.85141329  0.02323938    -0.81000
O67         O  0.58781245  0.08628370  0.46739608    -0.81040
C68         C  0.57389137  0.08789099  0.43983515     1.08690
C69         C  0.57883716  0.88120118  0.04328350     1.08580
C70         C  0.57971611  0.08020814  0.05363360     1.08710
C71         C  0.58418124  0.91842325  0.45019569     1.08590
O72         O  0.40786290  0.93984489  0.46566033    -0.81000
O73         O  0.40686655  0.04122712  0.03504321    -0.81080
O74         O  0.46016860  0.13415229  0.46607550    -0.81010
O75         O  0.43765887  0.90826538  0.03209102    -0.80990
O76         O  0.45646000  0.95823882  0.07481603    -0.81040
O77         O  0.39959693  0.05712710  0.45727706    -0.81010
O78         O  0.47346812  0.86722946  0.47371418    -0.80970
O79         O  0.45816149  0.12585262  0.02858238    -0.81040
Co80       Co  0.46746655  0.99887712  0.45041087     1.51530
Co81       Co  0.48530965  0.99145990  0.03784029     1.51690
Co82       Co  0.52296383  0.10060395  0.49710205     1.51570
Co83       Co  0.51685304  0.92253704  0.50491260     1.51470
O84         O  0.49913430  0.01088975  0.49357898    -1.42930
C85         C  0.42239515  0.88474836  0.46197132     1.08620
C86         C  0.40882579  0.09910874  0.03689518     1.08710
C87         C  0.41074729  0.11259699  0.45452463     1.08650
C88         C  0.42549890  0.91813055  0.06072001     1.08620
C89         C  0.25365768  0.74490963  0.37796739    -0.03350
O90         O  0.93113992  0.15090236  0.25900561    -0.81000
O91         O  0.06480041  0.92358278  0.28645348    -0.81020
O92         O  0.92200746  0.96056435  0.29264920    -0.81030
O93         O  0.07564398  0.06073147  0.29357432    -0.80970
O94         O  0.95051009  0.88272003  0.26573443    -0.81090
O95         O  0.05931297  0.13967177  0.26326995    -0.81010
O96         O  0.15423619  0.96338471  0.27683905    -0.81000
O97         O  0.90566336  0.07747339  0.29021038    -0.81040
C98         C  0.90685577  0.13330001  0.28394849     1.08690
C99         C  0.12406016  0.92432495  0.29176444     1.08580
C100        C  0.92194726  0.90410642  0.28873292     1.08710
C101        C  0.08025011  0.11783501  0.28824169     1.08590
O102        O  0.05923443  0.07384618  0.20361701    -0.81000
O103        O  0.96988442  0.92921546  0.20572028    -0.81080
O104        O  0.85985598  0.07176521  0.22773916    -0.81010
O105        O  0.10137561  0.94652827  0.22079528    -0.80990
O106        O  0.05995360  0.85863972  0.23313739    -0.81040
O107        O  0.94058473  0.08382586  0.19984186    -0.81010
O108        O  0.13425806  0.06381435  0.23555121    -0.80970
O109        O  0.87990197  0.94546183  0.22833691    -0.81040
Co110      Co  0.99733026  0.10721535  0.23206643     1.51530
Co111      Co  0.01689505  0.93251545  0.24483889     1.51690
Co112      Co  0.89791006  0.01370999  0.25932068     1.51570
Co113      Co  0.08186495  0.00252543  0.25868973     1.51470
O114        O  0.99025971  0.02215857  0.24934149    -1.42930
C115        C  0.11464954  0.08356378  0.21009765     1.08620
C116        C  0.91157484  0.92231119  0.20639056     1.08710
C117        C  0.88328618  0.08827059  0.20271870     1.08650
C118        C  0.09857693  0.88775731  0.21743918     1.08620
C119        C  0.75968429  0.75370600  0.12738642    -0.03350
C120        C  0.25675000  0.24703288  0.12510420    -0.03350
C121        C  0.74324981  0.25783769  0.12065412    -0.03350
C122        C  0.25926179  0.75132588  0.12763477    -0.03350
C123        C  0.24095864  0.26197649  0.37546010    -0.03350
C124        C  0.75537788  0.76785976  0.37103367    -0.03350
C125        C  0.11080361  0.22088125  0.31317753    -0.02710
C126        C  0.11790985  0.15708273  0.30972615     0.06970
C127        C  0.16900890  0.13012179  0.32397049    -0.02820
C128        C  0.19869306  0.15738636  0.34909469    -0.02820
C129        C  0.19523547  0.22334985  0.35340899     0.07100
C130        C  0.15287786  0.25422959  0.33214159    -0.03020
Br131      Br  0.14574912  0.34207695  0.32836847    -0.01570
Br132      Br  0.04461978  0.26312186  0.29127155    -0.01640
Br133      Br  0.24917703  0.09685702  0.37048241    -0.01600
Br134      Br  0.21828139  0.07844887  0.29803488    -0.01580
C135        C  0.14838865  0.20535859  0.15092198    -0.02710
C136        C  0.21605628  0.20283755  0.14723565     0.06970
C137        C  0.24602023  0.16320155  0.16983527    -0.02820
C138        C  0.21362421  0.11630184  0.18449913    -0.02820
C139        C  0.15028153  0.12382062  0.18937425     0.07100
C140        C  0.11964985  0.17312149  0.17492256    -0.03020
Br141      Br  0.04274326  0.20492080  0.19284294    -0.01570
Br142      Br  0.08777128  0.25789733  0.13047814    -0.01640
Br143      Br  0.25793276  0.04671623  0.20169254    -0.01600
Br144      Br  0.31887842  0.18275330  0.19423852    -0.01580
C145        C  0.83488350  0.85693682  0.36025282    -0.02710
C146        C  0.79526691  0.80898051  0.34885821     0.06970
C147        C  0.79569901  0.80093350  0.31624788    -0.02820
C148        C  0.84561605  0.82117413  0.29900139    -0.02820
C149        C  0.88408716  0.86741155  0.31007710     0.07100
C150        C  0.87689757  0.88680720  0.34072070    -0.03020
Br151      Br  0.93167982  0.94862293  0.35757657    -0.01570
Br152      Br  0.84035546  0.88004902  0.40271651    -0.01640
Br153      Br  0.85710937  0.78541660  0.25945953    -0.01600
Br154      Br  0.72349310  0.78579960  0.29057031    -0.01580
C155        C  0.23923390  0.81142634  0.18038694    -0.02710
C156        C  0.21437814  0.78493277  0.15232892     0.06970
C157        C  0.14807046  0.79384341  0.14914805    -0.02820
C158        C  0.11645143  0.83905253  0.16626773    -0.02820
C159        C  0.13872035  0.85506076  0.19501561     0.07100
C160        C  0.19932298  0.83707617  0.20264166    -0.03020
Br161      Br  0.22852831  0.84894302  0.24350208    -0.01570
Br162      Br  0.32607556  0.82600846  0.18964350    -0.01640
Br163      Br  0.04189017  0.87660991  0.15016512    -0.01600
Br164      Br  0.09007584  0.73219742  0.13758783    -0.01580
C165        C  0.79531682  0.86758594  0.14644194    -0.02710
C166        C  0.79919172  0.80098689  0.14814645     0.06970
C167        C  0.84354796  0.77810679  0.17059304    -0.02820
C168        C  0.88581025  0.81736844  0.18573908    -0.02820
C169        C  0.88009492  0.88112554  0.18355100     0.07100
C170        C  0.83904223  0.90471990  0.16175064    -0.03020
Br171      Br  0.85320674  0.98577811  0.14734550    -0.01570
Br172      Br  0.72585195  0.91721855  0.13112516    -0.01640
Br173      Br  0.96051931  0.78299909  0.20407831    -0.01600
Br174      Br  0.85328258  0.69303591  0.18195188    -0.01580
C175        C  0.87819885  0.14945593  0.15414410    -0.02710
C176        C  0.84680841  0.11919868  0.17762535     0.06970
C177        C  0.78183322  0.12151381  0.17713428    -0.02820
C178        C  0.74966245  0.16510639  0.15888769    -0.02820
C179        C  0.78257489  0.20825572  0.13976449     0.07100
C180        C  0.84921358  0.19781115  0.13787870    -0.03020
Br181      Br  0.90821745  0.24267100  0.11355100    -0.01570
Br182      Br  0.95717638  0.11605000  0.13924099    -0.01640
Br183      Br  0.66209076  0.17298586  0.16893638    -0.01600
Br184      Br  0.73642047  0.06089199  0.19970876    -0.01580
C185        C  0.25088332  0.83273345  0.33693511    -0.02710
C186        C  0.21671373  0.79131586  0.35576445     0.06970
C187        C  0.15064296  0.79003270  0.34943340    -0.02820
C188        C  0.12184420  0.83249358  0.32877306    -0.02820
C189        C  0.15549423  0.88001442  0.31453962     0.07100
C190        C  0.22084625  0.87906797  0.31939129    -0.03020
Br191      Br  0.27379922  0.94087368  0.30265824    -0.01570
Br192      Br  0.34089853  0.82993595  0.33395530    -0.01640
Br193      Br  0.03729461  0.81668412  0.31631029    -0.01600
Br194      Br  0.10014544  0.71906165  0.35859253    -0.01580
C195        C  0.68713504  0.12169461  0.06589919    -0.02710
C196        C  0.62401391  0.11500518  0.07366607     0.06970
C197        C  0.60087785  0.15298880  0.09659184    -0.02820
C198        C  0.63233868  0.20718224  0.10441335    -0.02820
C199        C  0.69887570  0.21219254  0.10106506     0.07100
C200        C  0.72546618  0.16356907  0.08209891    -0.03020
Br201      Br  0.81298935  0.15481958  0.07314279    -0.01570
Br202      Br  0.72237955  0.07394178  0.03267310    -0.01640
Br203      Br  0.57400133  0.27150523  0.11165127    -0.01600
Br204      Br  0.52561622  0.13155127  0.11749120    -0.01580
C205        C  0.31661501  0.23543660  0.07096438    -0.02710
C206        C  0.29455349  0.20854045  0.09925407     0.06970
C207        C  0.30433428  0.14340366  0.10077812    -0.02820
C208        C  0.32064596  0.10892835  0.07489295    -0.02820
C209        C  0.35726075  0.13552763  0.05246439     0.07100
C210        C  0.35080329  0.19949307  0.04922649    -0.03020
Br211      Br  0.38547130  0.23731680  0.01349118    -0.01570
Br212      Br  0.31626687  0.32245469  0.06268087    -0.01640
Br213      Br  0.29887040  0.02395619  0.07372850    -0.01600
Br214      Br  0.34970926  0.10623939  0.13352576    -0.01580
C215        C  0.33799000  0.84297298  0.05993011    -0.02710
C216        C  0.37465421  0.88424152  0.07638767     0.06970
C217        C  0.36009668  0.89173427  0.10757017    -0.02820
C218        C  0.30892857  0.86069959  0.11957019    -0.02820
C219        C  0.29191909  0.80232607  0.10715476     0.07100
C220        C  0.30829269  0.79528983  0.07518448    -0.03020
Br221      Br  0.30389696  0.72364218  0.04915405    -0.01570
Br222      Br  0.31651664  0.85826274  0.01794253    -0.01640
Br223      Br  0.24680735  0.91795894  0.13469969    -0.01600
Br224      Br  0.40398545  0.94575567  0.13474222    -0.01580
C225        C  0.68268350  0.86639262  0.38154813    -0.02710
C226        C  0.71839162  0.81454773  0.39323423     0.06970
C227        C  0.71713989  0.80882107  0.42593900    -0.02820
C228        C  0.66981620  0.83780824  0.44318401    -0.02820
C229        C  0.63296046  0.88605241  0.43115396     0.07100
C230        C  0.64160427  0.90146462  0.40033414    -0.03020
Br231      Br  0.59283495  0.96813018  0.38236334    -0.01570
Br232      Br  0.68241242  0.89118721  0.33954319    -0.01640
Br233      Br  0.65031614  0.80187637  0.48182499    -0.01600
Br234      Br  0.78391073  0.77512818  0.45122505    -0.01580
C235        C  0.38845241  0.17136439  0.40690831    -0.02710
C236        C  0.36849117  0.15017369  0.43510949     0.06970
C237        C  0.30571155  0.15832245  0.44247964    -0.02820
C238        C  0.26443023  0.18816309  0.42190000    -0.02820
C239        C  0.28701035  0.22003103  0.39533185     0.07100
C240        C  0.35352575  0.21515765  0.39101601    -0.03020
Br241      Br  0.40888562  0.27316911  0.37216082    -0.01570
Br242      Br  0.45559113  0.13191629  0.38520927    -0.01640
Br243      Br  0.17754814  0.17758715  0.43060824    -0.01600
Br244      Br  0.27542741  0.12317278  0.47979477    -0.01580
C245        C  0.73064358  0.82608452  0.08086781    -0.02710
C246        C  0.70961339  0.78702552  0.10518123     0.06970
C247        C  0.64305848  0.77437597  0.10404296    -0.02820
C248        C  0.60446446  0.80010961  0.08102554    -0.02820
C249        C  0.62454617  0.84831146  0.06321489     0.07100
C250        C  0.68813839  0.85947179  0.06216561    -0.03020
Br251      Br  0.71711944  0.91645119  0.03229866    -0.01570
Br252      Br  0.81697847  0.84100770  0.07274834    -0.01640
Br253      Br  0.52811603  0.76057942  0.06845746    -0.01600
Br254      Br  0.59908789  0.71222469  0.12633104    -0.01580
C255        C  0.29953752  0.84856074  0.40324357    -0.02710
C256        C  0.29273708  0.78262082  0.40336676     0.06970
C257        C  0.32597707  0.75241999  0.42826055    -0.02820
C258        C  0.36773498  0.78507175  0.44772094    -0.02820
C259        C  0.38162582  0.84654167  0.44184748     0.07100
C260        C  0.35054779  0.87567814  0.41761274    -0.03020
Br261      Br  0.38006936  0.95249620  0.40147775    -0.01570
Br262      Br  0.23759483  0.91100497  0.39223925    -0.01640
Br263      Br  0.41153679  0.74384890  0.48055120    -0.01600
Br264      Br  0.32693874  0.66486146  0.43454888    -0.01580
C265        C  0.86027541  0.21348514  0.35848042    -0.02710
C266        C  0.79307099  0.21822185  0.35432063     0.06970
C267        C  0.77194744  0.18421308  0.32875089    -0.02820
C268        C  0.80832321  0.18117029  0.30246027    -0.02820
C269        C  0.87308241  0.17485536  0.30574530     0.07100
C270        C  0.89768700  0.18578922  0.33519962    -0.03020
Br271      Br  0.97886915  0.15299398  0.34511039    -0.01570
Br272      Br  0.90572553  0.23560226  0.39540981    -0.01640
Br273      Br  0.76738060  0.16041184  0.26499339    -0.01600
Br274      Br  0.73816075  0.10416403  0.33627078    -0.01580
C275        C  0.71761629  0.15339374  0.40317228    -0.02710
C276        C  0.69643421  0.21144548  0.39067726     0.06970
C277        C  0.63165205  0.22667192  0.39681261    -0.02820
C278        C  0.59523800  0.18804215  0.41471637    -0.02820
C279        C  0.61325962  0.12696249  0.42030130     0.07100
C280        C  0.67569045  0.11066833  0.41541218    -0.03020
Br281      Br  0.70617679  0.03258851  0.43085641    -0.01570
Br282      Br  0.80367530  0.13177869  0.40987147    -0.01640
Br283      Br  0.53070164  0.22657839  0.43901795    -0.01600
Br284      Br  0.58403858  0.29839619  0.38368948    -0.01580
C285        C  0.13664850  0.32034931  0.06580070    -0.02710
C286        C  0.12792521  0.38031564  0.07750787     0.06970
C287        C  0.16355766  0.39821571  0.10276119    -0.02820
C288        C  0.21361359  0.36116070  0.11271456    -0.02820
C289        C  0.21420089  0.29569833  0.10681862     0.07100
C290        C  0.17584339  0.27713131  0.08126527    -0.03020
Br291      Br  0.16773130  0.19182068  0.06913366    -0.01570
Br292      Br  0.08835101  0.29511473  0.03078563    -0.01640
Br293      Br  0.28547764  0.40985486  0.12411677    -0.01600
Br294      Br  0.14701672  0.47546257  0.12351127    -0.01580
C295        C  0.13857161  0.68153376  0.06933797    -0.02710
C296        C  0.15848604  0.62002681  0.06607978     0.06970
C297        C  0.21594359  0.60226590  0.07900257    -0.02820
C298        C  0.24922333  0.64269275  0.09828825    -0.02820
C299        C  0.22584172  0.70457761  0.10475531     0.07100
C300        C  0.17546459  0.72455022  0.08539116    -0.03020
Br301      Br  0.15636535  0.81080765  0.07848911    -0.01570
Br302      Br  0.06036754  0.70794109  0.05162568    -0.01640
Br303      Br  0.33442391  0.61428322  0.10599319    -0.01600
Br304      Br  0.25220482  0.52258143  0.06826742    -0.01580
C305        C  0.78077470  0.67831730  0.07998419    -0.02710
C306        C  0.80460687  0.71544195  0.10494594     0.06970
C307        C  0.87135407  0.71104676  0.10893037    -0.02820
C308        C  0.90447230  0.65974208  0.09776755    -0.02820
C309        C  0.88141005  0.62734031  0.07300727     0.07100
C310        C  0.82098586  0.64061403  0.06241484    -0.03020
Br311      Br  0.79038558  0.60019481  0.02575290    -0.01570
Br312      Br  0.69449385  0.66435227  0.07079686    -0.01640
Br313      Br  0.98090262  0.63314385  0.11664349    -0.01600
Br314      Br  0.92631192  0.77896083  0.11573285    -0.01580
C315        C  0.17708812  0.60225156  0.42042287    -0.02710
C316        C  0.13147047  0.62871314  0.43879633     0.06970
C317        C  0.13188830  0.69288251  0.44154244    -0.02820
C318        C  0.16779158  0.72919040  0.42140822    -0.02820
C319        C  0.20841926  0.70250017  0.39832403     0.07100
C320        C  0.20915019  0.63600820  0.39837466    -0.03020
Br321      Br  0.25387505  0.58167368  0.37201041    -0.01570
Br322      Br  0.21287426  0.52575221  0.43417929    -0.01640
Br323      Br  0.15027256  0.81528264  0.42451211    -0.01600
Br324      Br  0.08700864  0.73126364  0.47472295    -0.01580
C325        C  0.80783626  0.62186688  0.41807863    -0.02710
C326        C  0.87206838  0.62841878  0.42175540     0.06970
C327        C  0.89996794  0.67906740  0.40916596    -0.02820
C328        C  0.86651593  0.71872097  0.38967200    -0.02820
C329        C  0.79877830  0.71988920  0.38929638     0.07100
C330        C  0.77107588  0.66911790  0.40497368    -0.03020
Br331      Br  0.68325336  0.66196065  0.41238659    -0.01570
Br332      Br  0.76903185  0.54777259  0.43127020    -0.01640
Br333      Br  0.92187957  0.75026906  0.35938761    -0.01600
Br334      Br  0.98620089  0.69229154  0.41780863    -0.01580
C335        C  0.11283191  0.35918572  0.41764610    -0.02710
C336        C  0.14349377  0.38306353  0.44328586     0.06970
C337        C  0.20541131  0.36559592  0.44840558    -0.02820
C338        C  0.23799205  0.33158236  0.42578182    -0.02820
C339        C  0.20520117  0.30198102  0.40061079     0.07100
C340        C  0.13892503  0.31074487  0.40100001    -0.03020
Br341      Br  0.07625900  0.25289767  0.38838651    -0.01570
Br342      Br  0.03726663  0.39602523  0.40212915    -0.01640
Br343      Br  0.32717928  0.33593207  0.42974759    -0.01600
Br344      Br  0.24560376  0.38957914  0.48609747    -0.01580
C345        C  0.85501955  0.39184301  0.09329754    -0.02710
C346        C  0.86227650  0.38051036  0.06203401     0.06970
C347        C  0.83294920  0.32909500  0.04978102    -0.02820
C348        C  0.78625541  0.29873426  0.06627611    -0.02820
C349        C  0.78442532  0.30179788  0.09925004     0.07100
C350        C  0.82133599  0.35123031  0.11194526    -0.03020
Br351      Br  0.83793098  0.36302235  0.15462894    -0.01570
Br352      Br  0.89829885  0.45967164  0.11173592    -0.01640
Br353      Br  0.71892062  0.27248136  0.04007899    -0.01600
Br354      Br  0.86276926  0.29454089  0.01203912    -0.01580
C355        C  0.84799677  0.39055452  0.40368036    -0.02710
C356        C  0.83604293  0.39375131  0.43501572     0.06970
C357        C  0.79055984  0.35660934  0.44700574    -0.02820
C358        C  0.76745268  0.30611506  0.43013505    -0.02820
C359        C  0.77933762  0.30040333  0.39768292     0.07100
C360        C  0.82022091  0.34573731  0.38503444    -0.03020
Br361      Br  0.83980298  0.35057310  0.34162716    -0.01570
Br362      Br  0.89306958  0.45565145  0.38486194    -0.01640
Br363      Br  0.72011466  0.25155675  0.45495343    -0.01600
Br364      Br  0.74903518  0.38603346  0.48336412    -0.01580
C365        C  0.60649274  0.70826660  0.32715872    -0.02710
C366        C  0.63055397  0.65926684  0.30962345     0.06970
C367        C  0.69408458  0.64391408  0.31229344    -0.02820
C368        C  0.73303592  0.67636567  0.33260176    -0.02820
C369        C  0.70898713  0.72586983  0.35166373     0.07100
C370        C  0.64207809  0.73449636  0.35067854    -0.03020
Br371      Br  0.58931021  0.76523152  0.38332271    -0.01570
Br372      Br  0.52552730  0.74483153  0.31814956    -0.01640
Br373      Br  0.82006093  0.65285016  0.32982133    -0.01600
Br374      Br  0.73164897  0.58710882  0.28317792    -0.01580
C375        C  0.33386828  0.31413715  0.30321810    -0.02710
C376        C  0.34806823  0.37523715  0.30997233     0.06970
C377        C  0.32883164  0.40004006  0.33765496    -0.02820
C378        C  0.28548527  0.36930624  0.35548112    -0.02820
C379        C  0.27790775  0.30383557  0.35233162     0.07100
C380        C  0.30579280  0.27723755  0.32529633    -0.03020
Br381      Br  0.32182390  0.19057090  0.31958870    -0.01570
Br382      Br  0.36010739  0.27771786  0.26521900    -0.01640
Br383      Br  0.22999555  0.42620550  0.37550016    -0.01600
Br384      Br  0.36587361  0.47423066  0.35248227    -0.01580
C385        C  0.66856880  0.35431153  0.13307875    -0.02710
C386        C  0.70762444  0.30425866  0.14399693     0.06970
C387        C  0.71833319  0.30710820  0.17696030    -0.02820
C388        C  0.68623406  0.35089457  0.19495743    -0.02820
C389        C  0.63199155  0.37975170  0.18433930     0.07100
C390        C  0.62487279  0.38410137  0.15274458    -0.03020
Br391      Br  0.55563030  0.43153495  0.13643577    -0.01570
Br392      Br  0.66858918  0.38364430  0.09160951    -0.01640
Br393      Br  0.72995957  0.38880519  0.22860028    -0.01600
Br394      Br  0.78241635  0.26504683  0.20144797    -0.01580
C395        C  0.31879066  0.63581099  0.18982542    -0.02710
C396        C  0.38095692  0.65193443  0.19416207     0.06970
C397        C  0.40645281  0.69592729  0.17547477    -0.02820
C398        C  0.37161534  0.72092634  0.15105391    -0.02820
C399        C  0.30529861  0.71308566  0.14898437     0.07100
C400        C  0.28036918  0.66805966  0.16918491    -0.03020
Br401      Br  0.19488403  0.64301686  0.16825920    -0.01570
Br402      Br  0.28640532  0.56688054  0.21160821    -0.01640
Br403      Br  0.42094464  0.75791938  0.12074668    -0.01600
Br404      Br  0.48997591  0.72171127  0.18379476    -0.01580
C405        C  0.65980844  0.69837392  0.19711742    -0.02710
C406        C  0.65659063  0.63492266  0.19265011     0.06970
C407        C  0.69120784  0.60779547  0.16924253    -0.02820
C408        C  0.73029841  0.64277513  0.15074875    -0.02820
C409        C  0.72680204  0.70956077  0.15121726     0.07100
C410        C  0.69117204  0.73563513  0.17617031    -0.03020
Br411      Br  0.67402336  0.82196614  0.18126895    -0.01570
Br412      Br  0.62102375  0.73487494  0.23249524    -0.01640
Br413      Br  0.79421180  0.59090981  0.13256308    -0.01600
Br414      Br  0.68590823  0.52029024  0.16290237    -0.01580
C415        C  0.66088493  0.32088247  0.30119648    -0.02710
C416        C  0.66304646  0.38502315  0.30534751     0.06970
C417        C  0.68094335  0.40804793  0.33377774    -0.02820
C418        C  0.69720095  0.36810835  0.35765478    -0.02820
C419        C  0.70515344  0.30252307  0.35231360     0.07100
C420        C  0.67549424  0.28079579  0.32520621    -0.03020
Br421      Br  0.62918835  0.20526818  0.32428939    -0.01570
Br422      Br  0.63110950  0.28542805  0.26363678    -0.01640
Br423      Br  0.68634206  0.40566077  0.39771700    -0.01600
Br424      Br  0.67543480  0.49560870  0.34114507    -0.01580
C425        C  0.36365192  0.68981057  0.36029044    -0.02710
C426        C  0.29825923  0.70488995  0.35491775     0.06970
C427        C  0.27478461  0.67897915  0.32639803    -0.02820
C428        C  0.30584439  0.63021805  0.31128630    -0.02820
C429        C  0.36826169  0.61562729  0.31749998     0.07100
C430        C  0.39532860  0.64275112  0.34351094    -0.03020
Br431      Br  0.47379909  0.61033574  0.35918237    -0.01570
Br432      Br  0.42241314  0.74208553  0.38109193    -0.01560
Br433      Br  0.25509054  0.57184569  0.28900457    -0.01600
Br434      Br  0.20686319  0.70856764  0.30114208    -0.01580
C435        C  0.40405990  0.30378256  0.17181283    -0.02710
C436        C  0.37668840  0.34319184  0.19281798     0.06970
C437        C  0.31186746  0.34951874  0.19371318    -0.02820
C438        C  0.27420447  0.31623073  0.17340739    -0.02820
C439        C  0.30117417  0.28224348  0.14804762     0.07100
C440        C  0.36863557  0.27952768  0.14757093    -0.03020
Br441      Br  0.42034980  0.25062183  0.11515267    -0.01570
Br442      Br  0.49065117  0.28138536  0.17808970    -0.01640
Br443      Br  0.18583018  0.32665512  0.18067976    -0.01600
Br444      Br  0.27346690  0.40431296  0.22313166    -0.01580
O445        O  0.44480448  0.36296922  0.73467936    -0.81000
O446        O  0.56454777  0.59993812  0.71916888    -0.81020
O447        O  0.42814913  0.55806976  0.70657031    -0.81030
O448        O  0.57897249  0.46862577  0.70454141    -0.80970
O449        O  0.44564989  0.63155653  0.73826984    -0.81090
O450        O  0.57092060  0.38278213  0.72983216    -0.81010
O451        O  0.65468396  0.55453226  0.72864389    -0.81000
O452        O  0.41660789  0.43901787  0.70518848    -0.81040
C453        C  0.41594534  0.38328289  0.71154414     1.08690
C454        C  0.62401659  0.59549726  0.71468743     1.08580
C455        C  0.42160347  0.61328434  0.71357651     1.08710
C456        C  0.58971156  0.41172733  0.70660029     1.08590
O457        O  0.56585889  0.42732952  0.79399479    -0.81000
O458        O  0.46414451  0.57433471  0.79646143    -0.81080
O459        O  0.36818249  0.43734307  0.76660461    -0.81010
O460        O  0.59718111  0.56718427  0.78308256    -0.80990
O461        O  0.54743227  0.65371925  0.77345227    -0.81040
O462        O  0.44661559  0.40913157  0.79579372    -0.81010
O463        O  0.63769466  0.45269542  0.76320884    -0.80970
O464        O  0.37954119  0.56199324  0.76958359    -0.81040
Co465      Co  0.50706467  0.40154876  0.76303054     1.51530
Co466      Co  0.51340901  0.58045221  0.75868725     1.51690
Co467      Co  0.40377910  0.49920741  0.73737859     1.51570
Co468      Co  0.58204377  0.51664497  0.74290555     1.51470
O469        O  0.49362300  0.49092479  0.75073688    -1.42930
C470        C  0.62147971  0.42441885  0.78671949     1.08620
C471        C  0.40574039  0.57986657  0.79410577     1.08710
C472        C  0.38947214  0.41016936  0.79001876     1.08650
C473        C  0.59024507  0.62568620  0.78769340     1.08620
O474        O  0.93721803  0.53992718  0.93220954    -0.81000
O475        O  0.06431384  0.56770393  0.54936011    -0.81020
O476        O  0.92838193  0.59761492  0.52785871    -0.81030
O477        O  0.07736319  0.59396190  0.98362627    -0.80970
O478        O  0.94637241  0.53723030  0.56517384    -0.81090
O479        O  0.06572801  0.53979485  0.94175237    -0.81010
O480        O  0.15219257  0.54434986  0.52647790    -0.81000
O481        O  0.90717289  0.59911696  0.97006891    -0.81040
C482        C  0.90813405  0.58710519  0.94220281     1.08690
C483        C  0.12365344  0.57534643  0.54661495     1.08580
C484        C  0.92239427  0.58639174  0.55522434     1.08710
C485        C  0.08751534  0.58699392  0.95549672     1.08590
O486        O  0.05158726  0.41360622  0.96758261    -0.81000
O487        O  0.95655878  0.41562305  0.53905678    -0.81080
O488        O  0.85597262  0.47796819  0.96978314    -0.81010
O489        O  0.09169735  0.43664399  0.53323539    -0.80990
O490        O  0.04678846  0.45784936  0.57705758    -0.81040
O491        O  0.93302565  0.41718588  0.95608856    -0.81010
O492        O  0.12874128  0.47094742  0.97705793    -0.80970
O493        O  0.87224739  0.47275775  0.53259519    -0.81040
Co494      Co  0.99703736  0.47871621  0.95216017     1.51530
Co495      Co  0.01005029  0.48942693  0.54060186     1.51690
Co496      Co  0.89679275  0.53545023  0.00027615     1.51570
Co497      Co  0.07743102  0.51776712  0.00824386     1.51470
O498        O  0.98672240  0.50584059  0.99615334    -1.42930
C499        C  0.10787663  0.42309623  0.96459439     1.08620
C500        C  0.89858128  0.42377614  0.54256781     1.08710
C501        C  0.87636017  0.43120244  0.95527120     1.08650
C502        C  0.08669610  0.42669078  0.56212330     1.08620
C503        C  0.74326918  0.25717847  0.87453813    -0.03350
O504        O  0.52453877  0.06178152  0.93029037    -0.81000
O505        O  0.56775119  0.93968090  0.54619788    -0.81020
O506        O  0.58961157  0.07927788  0.52576940    -0.81030
O507        O  0.59165214  0.92537097  0.97866316    -0.80970
O508        O  0.52931600  0.05719432  0.56255427    -0.81090
O509        O  0.53311063  0.93576950  0.93785841    -0.81010
O510        O  0.54935102  0.85140869  0.52323929    -0.81000
O511        O  0.58780981  0.08628860  0.96739679    -0.81040
C512        C  0.57388961  0.08789381  0.93983572     1.08690
C513        C  0.57883709  0.88119634  0.54328339     1.08580
C514        C  0.57971894  0.08020358  0.55363308     1.08710
C515        C  0.58417801  0.91842710  0.95019549     1.08590
O516        O  0.40785990  0.93984911  0.96566112    -0.81000
O517        O  0.40686894  0.04122392  0.53504210    -0.81080
O518        O  0.46016596  0.13415695  0.96607544    -0.81010
O519        O  0.43765901  0.90826240  0.53208982    -0.80990
O520        O  0.45646025  0.95823498  0.57481509    -0.81040
O521        O  0.39959420  0.05713163  0.95727780    -0.81010
O522        O  0.47346567  0.86723390  0.97371496    -0.80970
O523        O  0.45816567  0.12584843  0.52858207    -0.81040
Co524      Co  0.46746360  0.99888112  0.95041152     1.51530
Co525      Co  0.48531138  0.99145598  0.53783964     1.51690
Co526      Co  0.52296052  0.10060868  0.99710246     1.51570
Co527      Co  0.51685179  0.92254130  0.00491303     1.51470
O528        O  0.49913171  0.01089398  0.99357957    -1.42930
C529        C  0.42239249  0.88475261  0.96197218     1.08620
C530        C  0.40882909  0.09910542  0.53689417     1.08710
C531        C  0.41074446  0.11260146  0.95452489     1.08650
C532        C  0.42549852  0.91812759  0.56071873     1.08620
C533        C  0.25365848  0.74491132  0.87796735    -0.03350
O534        O  0.93114184  0.15090258  0.75900257    -0.81000
O535        O  0.06480187  0.92358253  0.78645208    -0.81020
O536        O  0.92200914  0.96056564  0.79264742    -0.81030
O537        O  0.07564525  0.06073276  0.79357242    -0.80970
O538        O  0.95051066  0.88271997  0.76573343    -0.81090
O539        O  0.05931499  0.13967200  0.76326732    -0.81010
O540        O  0.15423754  0.96338528  0.77683815    -0.81000
O541        O  0.90566557  0.07747433  0.79020779    -0.81040
C542        C  0.90685773  0.13330077  0.78394556     1.08690
C543        C  0.12406151  0.92432532  0.79176340     1.08580
C544        C  0.92194706  0.90410772  0.78873143     1.08710
C545        C  0.08025166  0.11783614  0.78823935     1.08590
O546        O  0.05923707  0.07384436  0.70361487    -0.81000
O547        O  0.96988570  0.92921348  0.70571889    -0.81080
O548        O  0.85985804  0.07176455  0.72773663    -0.81010
O549        O  0.10137751  0.94652689  0.72079440    -0.80990
O550        O  0.05995453  0.85863850  0.73313631    -0.81040
O551        O  0.94058674  0.08382494  0.69983916    -0.81010
O552        O  0.13426013  0.06381317  0.73554949    -0.80970
O553        O  0.87990328  0.94546108  0.72833528    -0.81040
Co554      Co  0.99733242  0.10721466  0.73206382     1.51530
Co555      Co  0.01689626  0.93251450  0.74483748     1.51690
Co556      Co  0.89791184  0.01371019  0.75931856     1.51570
Co557      Co  0.08186649  0.00252530  0.75868834     1.51470
O558        O  0.99026151  0.02215812  0.74933939    -1.42930
C559        C  0.11465217  0.08356182  0.71009570     1.08620
C560        C  0.91157613  0.92230925  0.70638921     1.08710
C561        C  0.88328809  0.08826956  0.70271607     1.08650
C562        C  0.09857826  0.88775596  0.71743824     1.08620
C563        C  0.75968536  0.75370241  0.62738574    -0.03350
C564        C  0.25675394  0.24702988  0.62510248    -0.03350
C565        C  0.74324914  0.25783709  0.62065274    -0.03350
C566        C  0.25926280  0.75132409  0.62763394    -0.03350
C567        C  0.24095631  0.26197945  0.87545930    -0.03350
C568        C  0.75537510  0.76786436  0.87103278    -0.03350
C569        C  0.11080450  0.22088334  0.81317499    -0.02710
C570        C  0.11791079  0.15708468  0.80972389     0.06970
C571        C  0.16900895  0.13012396  0.82396909    -0.02820
C572        C  0.19869182  0.15738888  0.84909361    -0.02820
C573        C  0.19523370  0.22335242  0.85340791     0.07100
C574        C  0.15287724  0.25423192  0.83213986    -0.03020
Br575      Br  0.14574873  0.34207948  0.82836674    -0.01570
Br576      Br  0.04462315  0.26312390  0.79126726    -0.01640
Br577      Br  0.24917516  0.09685974  0.87048184    -0.01600
Br578      Br  0.21828222  0.07844948  0.79803455    -0.01580
C579        C  0.14839239  0.20535486  0.65091950    -0.02710
C580        C  0.21606014  0.20283428  0.64723365     0.06970
C581        C  0.24602392  0.16319861  0.66983349    -0.02820
C582        C  0.21362757  0.11629930  0.68449754    -0.02820
C583        C  0.15028472  0.12381806  0.68937226     0.07100
C584        C  0.11965327  0.17311847  0.67492016    -0.03020
Br585      Br  0.04274647  0.20491840  0.69284009    -0.01570
Br586      Br  0.08777491  0.25789225  0.63047495    -0.01640
Br587      Br  0.25793558  0.04671348  0.70169103    -0.01600
Br588      Br  0.31888383  0.18274931  0.69423578    -0.01580
C589        C  0.83488067  0.85694142  0.86025122    -0.02710
C590        C  0.79526363  0.80898513  0.84885697     0.06970
C591        C  0.79569330  0.80093953  0.81624650    -0.02820
C592        C  0.84560930  0.82118063  0.79899921    -0.02820
C593        C  0.88408414  0.86741476  0.81007531     0.07100
C594        C  0.87689576  0.88681025  0.84071900    -0.03020
Br595      Br  0.93168082  0.94862364  0.85757484    -0.01570
Br596      Br  0.84035184  0.88005564  0.90271464    -0.01640
Br597      Br  0.85709435  0.78543125  0.75945498    -0.01600
Br598      Br  0.72348494  0.78580553  0.79057046    -0.01580
C599        C  0.23923586  0.81142882  0.68038472    -0.02710
C600        C  0.21437909  0.78493170  0.65232776     0.06970
C601        C  0.14807074  0.79383941  0.64914781    -0.02820
C602        C  0.11645094  0.83904795  0.66626748    -0.02820
C603        C  0.13872142  0.85505940  0.69501459     0.07100
C604        C  0.19932565  0.83707882  0.70263969    -0.03020
Br605      Br  0.22853391  0.84895120  0.74349919    -0.01570
Br606      Br  0.32607773  0.82601391  0.68963955    -0.01640
Br607      Br  0.04188856  0.87660336  0.65016505    -0.01600
Br608      Br  0.09007698  0.73219330  0.63758649    -0.01580
C609        C  0.79531797  0.86758278  0.64644095    -0.02710
C610        C  0.79919246  0.80098373  0.64814579     0.06970
C611        C  0.84354858  0.77810384  0.67059250    -0.02820
C612        C  0.88581102  0.81736565  0.68573844    -0.02820
C613        C  0.88009614  0.88112284  0.68354994     0.07100
C614        C  0.83904374  0.90471685  0.66174936    -0.03020
Br615      Br  0.85320887  0.98577475  0.64734379    -0.01570
Br616      Br  0.72585348  0.91721557  0.63112398    -0.01640
Br617      Br  0.96051818  0.78299597  0.70407949    -0.01600
Br618      Br  0.85328237  0.69303287  0.68195168    -0.01580
C619        C  0.87819957  0.14945556  0.65414171    -0.02710
C620        C  0.84680973  0.11919737  0.67762280     0.06970
C621        C  0.78183449  0.12151193  0.67713189    -0.02820
C622        C  0.74966309  0.16510463  0.65888558    -0.02820
C623        C  0.78257495  0.20825505  0.63976277     0.07100
C624        C  0.84921376  0.19781125  0.63787686    -0.03020
Br625      Br  0.90821731  0.24267298  0.61354989    -0.01570
Br626      Br  0.95717678  0.11605025  0.63923802    -0.01640
Br627      Br  0.66209115  0.17298256  0.66893404    -0.01600
Br628      Br  0.73642260  0.06088918  0.69970615    -0.01580
C629        C  0.25088463  0.83273419  0.83693446    -0.02710
C630        C  0.21671491  0.79131701  0.85576398     0.06970
C631        C  0.15064425  0.79003390  0.84943290    -0.02820
C632        C  0.12184522  0.83249543  0.82877301    -0.02820
C633        C  0.15549554  0.88001523  0.81453885     0.07100
C634        C  0.22084767  0.87906835  0.81939032    -0.03020
Br635      Br  0.27380072  0.94087424  0.80265744    -0.01570
Br636      Br  0.34089991  0.82993696  0.83395508    -0.01640
Br637      Br  0.03729333  0.81668981  0.81631298    -0.01600
Br638      Br  0.10014748  0.71906195  0.85859118    -0.01580
C639        C  0.68713724  0.12169258  0.56589801    -0.02710
C640        C  0.62401633  0.11500205  0.57366524     0.06970
C641        C  0.60087982  0.15298656  0.59659062    -0.02820
C642        C  0.63233955  0.20718109  0.60441117    -0.02820
C643        C  0.69887633  0.21219180  0.60106318     0.07100
C644        C  0.72546765  0.16356864  0.58209713    -0.03020
Br645      Br  0.81299077  0.15482189  0.57314031    -0.01570
Br646      Br  0.72238254  0.07393918  0.53267230    -0.01640
Br647      Br  0.57400142  0.27150702  0.61164158    -0.01600
Br648      Br  0.52561829  0.13155046  0.61749008    -0.01580
C649        C  0.31661989  0.23543428  0.57096290    -0.02710
C650        C  0.29455738  0.20853779  0.59925232     0.06970
C651        C  0.30433618  0.14340079  0.60077589    -0.02820
C652        C  0.32064713  0.10892608  0.57489048    -0.02820
C653        C  0.35726412  0.13552507  0.55246275     0.07100
C654        C  0.35080867  0.19949075  0.54922524    -0.03020
Br655      Br  0.38548037  0.23731489  0.51349089    -0.01570
Br656      Br  0.31627179  0.32245233  0.56267937    -0.01640
Br657      Br  0.29886813  0.02395490  0.57372470    -0.01600
Br658      Br  0.34971139  0.10623517  0.63352295    -0.01580
C659        C  0.33799127  0.84296826  0.55992850    -0.02710
C660        C  0.37465287  0.88423932  0.57638592     0.06970
C661        C  0.36009236  0.89173450  0.60756792    -0.02820
C662        C  0.30892440  0.86069918  0.61956750    -0.02820
C663        C  0.29191907  0.80232359  0.60715324     0.07100
C664        C  0.30829462  0.79528531  0.57518331    -0.03020
Br665      Br  0.30390192  0.72363566  0.54915413    -0.01570
Br666      Br  0.31651939  0.85825457  0.51794049    -0.01640
Br667      Br  0.24679874  0.91795726  0.63469393    -0.01600
Br668      Br  0.40397690  0.94575928  0.63473983    -0.01580
C669        C  0.68268028  0.86639769  0.88154743    -0.02710
C670        C  0.71838871  0.81455267  0.89323332     0.06970
C671        C  0.71713745  0.80882624  0.92593810    -0.02820
C672        C  0.66981354  0.83781271  0.94318326    -0.02820
C673        C  0.63295667  0.88605615  0.93115335     0.07100
C674        C  0.64159961  0.90146826  0.90033343    -0.03020
Br675      Br  0.59282717  0.96813163  0.88236248    -0.01570
Br676      Br  0.68241207  0.89119595  0.83954306    -0.01640
Br677      Br  0.65031473  0.80188069  0.98182433    -0.01600
Br678      Br  0.78390988  0.77513558  0.95122384    -0.01580
C679        C  0.38845059  0.17136973  0.90690872    -0.02710
C680        C  0.36848821  0.15017763  0.93510943     0.06970
C681        C  0.30570790  0.15832493  0.94247882    -0.02820
C682        C  0.26442705  0.18816580  0.92189899    -0.02820
C683        C  0.28700788  0.22003428  0.89533120     0.07100
C684        C  0.35352357  0.21516214  0.89101601    -0.03020
Br685      Br  0.40888297  0.27317466  0.87216114    -0.01570
Br686      Br  0.45559252  0.13192470  0.88521077    -0.01640
Br687      Br  0.17754426  0.17759025  0.93060626    -0.01600
Br688      Br  0.27542228  0.12317366  0.97979326    -0.01580
C689        C  0.73064380  0.82608053  0.58086731    -0.02710
C690        C  0.70961410  0.78702106  0.60518057     0.06970
C691        C  0.64305949  0.77436974  0.60404202    -0.02820
C692        C  0.60446496  0.80010377  0.58102489    -0.02820
C693        C  0.62454614  0.84830649  0.56321463     0.07100
C694        C  0.68813818  0.85946778  0.56216542    -0.03020
Br695      Br  0.71711852  0.91644892  0.53229915    -0.01570
Br696      Br  0.81697864  0.84100389  0.57274755    -0.01640
Br697      Br  0.52811664  0.76057322  0.56845670    -0.01600
Br698      Br  0.59909103  0.71221436  0.62632852    -0.01580
C699        C  0.29953749  0.84856341  0.90324320    -0.02710
C700        C  0.29273739  0.78262337  0.90336666     0.06970
C701        C  0.32597668  0.75242335  0.92826093    -0.02820
C702        C  0.36773316  0.78507588  0.94772170    -0.02820
C703        C  0.38162388  0.84654569  0.94184812     0.07100
C704        C  0.35054685  0.87568153  0.91761289    -0.03020
Br705      Br  0.38006837  0.95249992  0.90147823    -0.01570
Br706      Br  0.23759500  0.91100717  0.89223791    -0.01640
Br707      Br  0.41153281  0.74385447  0.98055308    -0.01600
Br708      Br  0.32693949  0.66486505  0.93454969    -0.01580
C709        C  0.86027581  0.21348264  0.85847791    -0.02710
C710        C  0.79307159  0.21821949  0.85431785     0.06970
C711        C  0.77194831  0.18421288  0.82874726    -0.02820
C712        C  0.80832494  0.18117126  0.80245687    -0.02820
C713        C  0.87308412  0.17485629  0.80574222     0.07100
C714        C  0.89768813  0.18578906  0.83519677    -0.03020
Br715      Br  0.97887127  0.15299587  0.84510718    -0.01570
Br716      Br  0.90572363  0.23559464  0.89540875    -0.01640
Br717      Br  0.76738349  0.16041368  0.76498955    -0.01600
Br718      Br  0.73815958  0.10416378  0.83626506    -0.01580
C719        C  0.71761499  0.15338790  0.90316847    -0.02710
C720        C  0.69643495  0.21144228  0.89067530     0.06970
C721        C  0.63165434  0.22667204  0.89681289    -0.02820
C722        C  0.59524034  0.18804405  0.91471754    -0.02820
C723        C  0.61325891  0.12696338  0.92030146     0.07100
C724        C  0.67568813  0.11066554  0.91541037    -0.03020
Br725      Br  0.70617178  0.03258552  0.93085548    -0.01570
Br726      Br  0.80367385  0.13176368  0.90986219    -0.01640
Br727      Br  0.53070731  0.22658237  0.93902060    -0.01600
Br728      Br  0.58404063  0.29839589  0.88368955    -0.01580
C729        C  0.13665316  0.32034672  0.56579905    -0.02710
C730        C  0.12792874  0.38031219  0.57750708     0.06970
C731        C  0.16356130  0.39821209  0.60276035    -0.02820
C732        C  0.21361768  0.36115739  0.61271320    -0.02820
C733        C  0.21420518  0.29569523  0.60681688     0.07100
C734        C  0.17584838  0.27712860  0.58126321    -0.03020
Br735      Br  0.16773693  0.19181836  0.56913068    -0.01570
Br736      Br  0.08835701  0.29511326  0.53078330    -0.01640
Br737      Br  0.28548188  0.40985180  0.62411498    -0.01600
Br738      Br  0.14702053  0.47545865  0.62351073    -0.01580
C739        C  0.13857372  0.68152929  0.56933803    -0.02710
C740        C  0.15848930  0.62002280  0.56607990     0.06970
C741        C  0.21594702  0.60226261  0.57900261    -0.02820
C742        C  0.24922573  0.64268971  0.59828854    -0.02820
C743        C  0.22584357  0.70457471  0.60475495     0.07100
C744        C  0.17546663  0.72454650  0.58539055    -0.03020
Br745      Br  0.15636605  0.81080343  0.57848801    -0.01570
Br746      Br  0.06036733  0.70793459  0.55162741    -0.01640
Br747      Br  0.33442574  0.61427980  0.60599487    -0.01600
Br748      Br  0.25220961  0.52257897  0.56826698    -0.01580
C749        C  0.78077885  0.67831580  0.57998265    -0.02710
C750        C  0.80460894  0.71543891  0.60494547     0.06970
C751        C  0.87135559  0.71104281  0.60893135    -0.02820
C752        C  0.90447411  0.65973787  0.59776920    -0.02820
C753        C  0.88141448  0.62733805  0.57300770     0.07100
C754        C  0.82099160  0.64061327  0.56241377    -0.03020
Br755      Br  0.79039495  0.60019770  0.52575010    -0.01570
Br756      Br  0.69449887  0.66435251  0.57079250    -0.01640
Br757      Br  0.98090118  0.63313757  0.61664755    -0.01600
Br758      Br  0.92631319  0.77895746  0.61573220    -0.01580
C759        C  0.17708829  0.60225381  0.92042357    -0.02710
C760        C  0.13146869  0.62871552  0.93879594     0.06970
C761        C  0.13188479  0.69288515  0.94154108    -0.02820
C762        C  0.16779015  0.72919270  0.92140749    -0.02820
C763        C  0.20841971  0.70250209  0.89832415     0.07100
C764        C  0.20915187  0.63601007  0.89837563    -0.03020
Br765      Br  0.25388361  0.58167563  0.87201399    -0.01570
Br766      Br  0.21287315  0.52575440  0.93418086    -0.01640
Br767      Br  0.15027298  0.81528528  0.92451143    -0.01600
Br768      Br  0.08699774  0.73126714  0.97471904    -0.01580
C769        C  0.80783094  0.62187168  0.91807899    -0.02710
C770        C  0.87206370  0.62842016  0.92175415     0.06970
C771        C  0.89996534  0.67906589  0.90916306    -0.02820
C772        C  0.86651324  0.71872257  0.88967044    -0.02820
C773        C  0.79877539  0.71989335  0.88929567     0.07100
C774        C  0.77107189  0.66912338  0.90497370    -0.03020
Br775      Br  0.68324931  0.66196892  0.91238717    -0.01570
Br776      Br  0.76902463  0.54777985  0.93127297    -0.01640
Br777      Br  0.92187646  0.75027494  0.85938703    -0.01600
Br778      Br  0.98620176  0.69228027  0.91780168    -0.01580
C779        C  0.11283027  0.35919174  0.91764433    -0.02710
C780        C  0.14349105  0.38306688  0.94328499     0.06970
C781        C  0.20540754  0.36559687  0.94840549    -0.02820
C782        C  0.23798883  0.33158421  0.92578161    -0.02820
C783        C  0.20519858  0.30198439  0.90060987     0.07100
C784        C  0.13892269  0.31075042  0.90099825    -0.03020
Br785      Br  0.07625561  0.25290522  0.88838405    -0.01570
Br786      Br  0.03726827  0.39603594  0.90212628    -0.01640
Br787      Br  0.32717582  0.33593354  0.92974852    -0.01600
Br788      Br  0.24559751  0.38957508  0.98609880    -0.01580
C789        C  0.85501795  0.39184354  0.59329710    -0.02710
C790        C  0.86227601  0.38051075  0.56203363     0.06970
C791        C  0.83294826  0.32909591  0.54978029    -0.02820
C792        C  0.78625407  0.29873536  0.56627517    -0.02820
C793        C  0.78442408  0.30179825  0.59924906     0.07100
C794        C  0.82133410  0.35123074  0.61194458    -0.03020
Br795      Br  0.83792758  0.36302294  0.65462837    -0.01570
Br796      Br  0.89829572  0.45967265  0.61173583    -0.01640
Br797      Br  0.71891855  0.27248380  0.54007816    -0.01600
Br798      Br  0.86276723  0.29454265  0.51203801    -0.01580
C799        C  0.84799603  0.39055275  0.90367873    -0.02710
C800        C  0.83604169  0.39374917  0.93501406     0.06970
C801        C  0.79056133  0.35660389  0.94700409    -0.02820
C802        C  0.76745692  0.30610862  0.93013324    -0.02820
C803        C  0.77933978  0.30039925  0.89768092     0.07100
C804        C  0.82022228  0.34573428  0.88503267    -0.03020
Br805      Br  0.83980467  0.35057087  0.84162550    -0.01570
Br806      Br  0.89306504  0.45565259  0.88486057    -0.01640
Br807      Br  0.72013090  0.25154180  0.95495243    -0.01600
Br808      Br  0.74903490  0.38602436  0.98336252    -0.01580
C809        C  0.60649063  0.70826785  0.82715799    -0.02710
C810        C  0.63055256  0.65926748  0.80962328     0.06970
C811        C  0.69408338  0.64391602  0.81229332    -0.02820
C812        C  0.73303432  0.67636965  0.83260102    -0.02820
C813        C  0.70898473  0.72587364  0.85166293     0.07100
C814        C  0.64207556  0.73449927  0.85067756    -0.03020
Br815      Br  0.58930702  0.76523729  0.88332077    -0.01570
Br816      Br  0.52552515  0.74483213  0.81814798    -0.01640
Br817      Br  0.82005987  0.65285741  0.82981944    -0.01600
Br818      Br  0.73164822  0.58710933  0.78317855    -0.01580
C819        C  0.33386543  0.31413910  0.80321721    -0.02710
C820        C  0.34806608  0.37523889  0.80997138     0.06970
C821        C  0.32883046  0.40004198  0.83765414    -0.02820
C822        C  0.28548391  0.36930876  0.85548043    -0.02820
C823        C  0.27790583  0.30383817  0.85233095     0.07100
C824        C  0.30579089  0.27723973  0.82529576    -0.03020
Br825      Br  0.32182385  0.19057323  0.81958877    -0.01570
Br826      Br  0.36010233  0.27771978  0.76521773    -0.01640
Br827      Br  0.22999552  0.42620862  0.87549997    -0.01600
Br828      Br  0.36587488  0.47423115  0.85248163    -0.01580
C829        C  0.66856605  0.35430947  0.63307802    -0.02710
C830        C  0.70762240  0.30425678  0.64399580     0.06970
C831        C  0.71833101  0.30710577  0.67695920    -0.02820
C832        C  0.68623194  0.35089192  0.69495658    -0.02820
C833        C  0.63198934  0.37974932  0.68433868     0.07100
C834        C  0.62486971  0.38409838  0.65274397    -0.03020
Br835      Br  0.55562743  0.43153244  0.63643536    -0.01570
Br836      Br  0.66859076  0.38364828  0.59160980    -0.01640
Br837      Br  0.72995747  0.38880193  0.72859960    -0.01600
Br838      Br  0.78241488  0.26504470  0.70144645    -0.01580
C839        C  0.31879160  0.63581283  0.68982606    -0.02710
C840        C  0.38095819  0.65193540  0.69416200     0.06970
C841        C  0.40645444  0.69592707  0.67547412    -0.02820
C842        C  0.37161664  0.72092638  0.65105344    -0.02820
C843        C  0.30529985  0.71308539  0.64898401     0.07100
C844        C  0.28037037  0.66806036  0.66918509    -0.03020
Br845      Br  0.19488551  0.64301667  0.66825940    -0.01570
Br846      Br  0.28640555  0.56688472  0.71161049    -0.01640
Br847      Br  0.42094545  0.75792270  0.62074690    -0.01600
Br848      Br  0.48997895  0.72170836  0.68379295    -0.01580
C849        C  0.65980869  0.69837172  0.69711652    -0.02710
C850        C  0.65659136  0.63492034  0.69264971     0.06970
C851        C  0.69120863  0.60779255  0.66924232    -0.02820
C852        C  0.73029892  0.64277188  0.65074820    -0.02820
C853        C  0.72680288  0.70955750  0.65121654     0.07100
C854        C  0.69117197  0.73563241  0.67616912    -0.03020
Br855      Br  0.67402167  0.82196331  0.68126665    -0.01570
Br856      Br  0.62102403  0.73487359  0.73249413    -0.01640
Br857      Br  0.79420992  0.59090616  0.63256118    -0.01600
Br858      Br  0.68590841  0.52028716  0.66290254    -0.01580
C859        C  0.66088341  0.32088056  0.80119563    -0.02710
C860        C  0.66304531  0.38502118  0.80534679     0.06970
C861        C  0.68094340  0.40804570  0.83377689    -0.02820
C862        C  0.69720240  0.36810584  0.85765361    -0.02820
C863        C  0.70515422  0.30252052  0.85231216     0.07100
C864        C  0.67549337  0.28079374  0.82520515    -0.03020
Br865      Br  0.62918609  0.20526706  0.82428902    -0.01570
Br866      Br  0.63110672  0.28542626  0.76363614    -0.01640
Br867      Br  0.68634589  0.40565799  0.89771608    -0.01600
Br868      Br  0.67543440  0.49560639  0.84114454    -0.01580
C869        C  0.36365301  0.68981241  0.86029025    -0.02710
C870        C  0.29826006  0.70489122  0.85491783     0.06970
C871        C  0.27478481  0.67897878  0.82639860    -0.02820
C872        C  0.30584448  0.63021729  0.81128716    -0.02820
C873        C  0.36826233  0.61562794  0.81750008     0.07100
C874        C  0.39532990  0.64275307  0.84351060    -0.03020
Br875      Br  0.47380116  0.61033871  0.85918158    -0.01570
Br876      Br  0.42241342  0.74208687  0.88109257    -0.01560
Br877      Br  0.25509041  0.57184299  0.78900700    -0.01600
Br878      Br  0.20686495  0.70856770  0.80114179    -0.01580
C879        C  0.40406302  0.30378433  0.67181068    -0.02710
C880        C  0.37669017  0.34319230  0.69281611     0.06970
C881        C  0.31186912  0.34951739  0.69371133    -0.02820
C882        C  0.27420700  0.31622790  0.67340576    -0.02820
C883        C  0.30117746  0.28224087  0.64804610     0.07100
C884        C  0.36863888  0.27952687  0.64756930    -0.03020
Br885      Br  0.42035299  0.25061811  0.61515173    -0.01570
Br886      Br  0.49065692  0.28139444  0.67808557    -0.01640
Br887      Br  0.18583251  0.32665040  0.68067813    -0.01600
Br888      Br  0.27346732  0.40431304  0.72312886    -0.01580
loop_ 
_geom_bond_atom_site_label_1 
_geom_bond_atom_site_label_2 
_geom_bond_distance 
_geom_bond_site_symmetry_2 
_ccdc_geom_bond_type 
O1            C9   1.267       .  A
O1          Co21   2.014       .  S
O2           C10   1.298       .  A
O2          Co22   2.112       .  S
O3           C11   1.246       .  A
O3          Co23   1.954       .  S
O4           C12   1.262       .  A
O4          Co24   1.979       .  S
O5           C11   1.264       .  A
O5          Co22   2.028       .  S
O6           C12   1.277       .  A
O6          Co21   2.045       .  S
O7           C10   1.262       .  A
O7          Co24   1.893       .  S
O8            C9   1.250       .  A
O8          Co23   1.940       .  S
C9          C436   1.470       .  S
C10         C406   1.488       .  S
C11         C396   1.476       .  S
C12         C389   1.500       .  S
O13          C26   1.241       .  A
O13         Co21   1.938       .  S
O14          C27   1.264       .  A
O14         Co22   1.983       .  S
O15          C28   1.270       .  A
O15         Co23   2.034       .  S
O16          C29   1.297       .  A
O16         Co24   2.101       .  S
O17          C29   1.262       .  A
O17         Co22   1.878       .  S
O18          C28   1.253       .  A
O18         Co21   1.951       .  S
O19          C26   1.262       .  A
O19         Co24   2.030       .  S
O20          C27   1.274       .  A
O20         Co23   2.026       .  S
Co21         O25   2.042       .  S
Co22         O25   2.033       .  S
Co23         O25   2.022       .  S
Co24         O25   2.025       .  S
C26         C416   1.477       .  S
C27         C429   1.514       .  S
C28         C376   1.479       .  S
C29         C366   1.489       .  S
O30          C38   1.272       .  A
O30         Co50   2.037       .  S
O31          C39   1.297       .  A
O31         Co51   2.116       .  S
O32          C40   1.237       .  A
O32        Co496   1.940       .  S
O33          C41   1.264       .  A
O33         Co53   1.990       .  S
O34          C40   1.262       .  A
O34         Co51   2.020   1_655  S
O35          C41   1.283       .  A
O35         Co50   2.063   1_455  S
O36          C39   1.265       .  A
O36        Co497   1.890       .  S
O37          C38   1.251       .  A
O37         Co52   1.946       .  S
C38         C326   1.484       .  S
C39         C296   1.499       .  S
C40         C309   1.468       .  S
C41         C316   1.520       .  S
O42          C55   1.240       .  A
O42         Co50   1.949   1_455  S
O43          C56   1.267       .  A
O43         Co51   1.996   1_655  S
O44          C57   1.272       .  A
O44         Co52   2.033       .  S
O45          C58   1.295       .  A
O45        Co497   2.107       .  S
O46          C58   1.269       .  A
O46         Co51   1.910       .  S
O47          C57   1.252       .  A
O47         Co50   1.949       .  S
O48          C55   1.263       .  A
O48         Co53   2.024       .  S
O49          C56   1.280       .  A
O49        Co496   2.058       .  S
Co50         O54   2.030       .  S
Co51        O498   2.047   1_454  S
Co52        O476   1.940       .  S
Co52        O493   2.058       .  S
Co52         O54   2.038       .  S
Co53        O480   1.890       .  S
Co53        O489   2.107       .  S
Co53         O54   2.040   1_455  S
O54        Co495   2.047   1_655  S
C55         C336   1.483       .  S
C56         C346   1.510       .  S
C57         C356   1.488       .  S
C58         C286   1.496       .  S
C59         C266   1.621       .  S
C59         C276   1.603       .  S
C59         C359   1.589       .  S
C59         C419   1.607       .  S
O60          C68   1.280       .  A
O60         Co80   2.065   1_545  S
O61          C69   1.299       .  A
O61         Co81   2.117       .  S
O62          C70   1.244       .  A
O62        Co526   1.955   1_554  S
O63          C71   1.269       .  A
O63         Co83   1.989       .  S
O64          C70   1.269       .  A
O64         Co81   2.035   1_545  S
O65          C71   1.275       .  A
O65         Co80   2.031       .  S
O66          C69   1.264       .  A
O66        Co527   1.876       .  S
O67          C68   1.246       .  A
O67         Co82   1.937       .  S
C68         C279   1.493       .  S
C69         C249   1.491       .  S
C70         C196   1.504       .  S
C71         C229   1.509       .  S
O72          C85   1.246       .  A
O72         Co80   1.958       .  S
O73          C86   1.266       .  A
O73         Co81   1.994   1_545  S
O74          C87   1.271       .  A
O74         Co82   2.044       .  S
O75          C88   1.302       .  A
O75        Co527   2.116       .  S
O76          C88   1.264       .  A
O76         Co81   1.897       .  S
O77          C87   1.245       .  A
O77         Co80   1.942   1_545  S
O78          C85   1.265       .  A
O78         Co83   2.050       .  S
O79          C86   1.277       .  A
O79        Co526   2.037   1_554  S
Co80         O84   2.028   1_565  S
Co81        O528   2.020   1_564  S
Co82        O506   1.955       .  S
Co82        O523   2.037       .  S
Co82         O84   2.036       .  S
Co83        O510   1.876       .  S
Co83        O519   2.116       .  S
Co83         O84   2.023   1_565  S
O84        Co525   2.020   1_545  S
C85         C259   1.500       .  S
C86         C209   1.517       .  S
C87         C236   1.484       .  S
C88         C216   1.505       .  S
C89         C186   1.608       .  S
C89         C256   1.621       .  S
C89         C319   1.631       .  S
C89         C426   1.637       .  S
O90          C98   1.282       .  A
O90        Co110   2.072       .  S
O91          C99   1.295       .  A
O91        Co111   2.102       .  S
O92         C100   1.242       .  A
O92        Co112   1.938   1_565  S
O93         C101   1.275       .  A
O93        Co113   1.986       .  S
O94         C100   1.268       .  A
O94        Co111   2.038   1_655  S
O95         C101   1.276       .  A
O95        Co110   2.038   1_455  S
O96          C99   1.270       .  A
O96        Co113   1.933   1_565  S
O97          C98   1.251       .  A
O97        Co112   1.944       .  S
C98         C269   1.496       .  S
C99         C189   1.542       .  S
C100        C149   1.493       .  S
C101        C126   1.510       .  S
O102        C115   1.245       .  A
O102       Co110   1.960   1_455  S
O103        C116   1.267       .  A
O103       Co111   1.990   1_655  S
O104        C117   1.270       .  A
O104       Co112   2.044       .  S
O105        C118   1.292       .  A
O105       Co113   2.098   1_565  S
O106        C118   1.266       .  A
O106       Co111   1.913       .  S
O107        C117   1.242       .  A
O107       Co110   1.935       .  S
O108        C115   1.269       .  A
O108       Co113   2.045       .  S
O109        C116   1.280       .  A
O109       Co112   2.049   1_565  S
Co110       O114   2.019       .  S
Co111       O114   2.036   1_465  S
Co112       O114   2.049       .  S
Co113       O114   2.049   1_455  S
C115        C139   1.495       .  S
C116        C169   1.507       .  S
C117        C176   1.506       .  S
C118        C159   1.485       .  S
C119        C166   1.620       .  S
C119        C246   1.616       .  S
C119        C306   1.605       .  S
C119        C409   1.605       .  S
C120        C136   1.643       .  S
C120        C206   1.622       .  S
C120        C289   1.606       .  S
C120        C439   1.587       .  S
C121        C179   1.601       .  S
C121        C199   1.628       .  S
C121        C349   1.626       .  S
C121        C386   1.622       .  S
C122        C156   1.620       .  S
C122        C219   1.610       .  S
C122        C299   1.602       .  S
C122        C399   1.590       .  S
C123        C129   1.618       .  S
C123        C239   1.597       .  S
C123        C339   1.596       .  S
C123        C379   1.597       .  S
C124        C146   1.595       .  S
C124        C226   1.609       .  S
C124        C329   1.606       .  S
C124        C369   1.602       .  S
C125        C126   1.404       .  A
C125        C130   1.430       .  A
C125       Br132   1.937       .  S
C126        C127   1.386       .  A
C127        C128   1.405       .  A
C127       Br134   1.910       .  S
C128        C129   1.450       .  A
C128       Br133   1.940       .  S
C129        C130   1.461       .  A
C130       Br131   1.928       .  S
C135        C136   1.466       .  A
C135        C140   1.423       .  A
C135       Br142   1.942       .  S
C136        C137   1.461       .  A
C137        C138   1.410       .  A
C137       Br144   1.945       .  S
C138        C139   1.388       .  A
C138       Br143   1.934       .  S
C139        C140   1.405       .  A
C140       Br141   1.951       .  S
C145        C146   1.445       .  A
C145        C150   1.421       .  A
C145       Br152   1.933       .  S
C146        C147   1.443       .  A
C147        C148   1.399       .  A
C147       Br154   1.945       .  S
C148        C149   1.398       .  A
C148       Br153   1.915       .  S
C149        C150   1.417       .  A
C150       Br151   1.945       .  S
C155        C156   1.460       .  A
C155        C160   1.412       .  A
C155       Br162   1.941       .  S
C156        C157   1.442       .  A
C157        C158   1.404       .  A
C157       Br164   1.914       .  S
C158        C159   1.392       .  A
C158       Br163   1.922       .  S
C159        C160   1.394       .  A
C160       Br161   1.916       .  S
C165        C166   1.456       .  A
C165        C170   1.415       .  A
C165       Br172   1.949       .  S
C166        C167   1.453       .  A
C167        C168   1.419       .  A
C167       Br174   1.933       .  S
C168        C169   1.398       .  A
C168       Br173   1.935       .  S
C169        C170   1.394       .  A
C170       Br171   1.913       .  S
C175        C176   1.412       .  A
C175        C180   1.413       .  A
C175       Br182   1.952       .  S
C176        C177   1.398       .  A
C177        C178   1.417       .  A
C177       Br184   1.941       .  S
C178        C179   1.462       .  A
C178       Br183   1.942       .  S
C179        C180   1.451       .  A
C180       Br181   1.947       .  S
C185        C186   1.444       .  A
C185        C190   1.420       .  A
C185       Br192   1.942       .  S
C186        C187   1.447       .  A
C187        C188   1.433       .  A
C187       Br194   1.953       .  S
C188        C189   1.426       .  A
C188       Br193   1.932       .  S
C189        C190   1.420       .  A
C190       Br191   1.933       .  S
C195        C196   1.413       .  A
C195        C200   1.424       .  A
C195       Br202   1.938       .  S
C196        C197   1.389       .  A
C197        C198   1.411       .  A
C197       Br204   1.933       .  S
C198        C199   1.446       .  A
C198       Br203   1.892       .  S
C199        C200   1.455       .  A
C200       Br201   1.932       .  S
C205        C206   1.465       .  A
C205        C210   1.430       .  A
C205       Br212   1.935       .  S
C206        C207   1.435       .  A
C207        C208   1.402       .  A
C207       Br214   1.911       .  S
C208        C209   1.402       .  A
C208       Br213   1.920       .  S
C209        C210   1.408       .  A
C210       Br211   1.940       .  S
C215        C216   1.401       .  A
C215        C220   1.407       .  A
C215       Br222   1.930       .  S
C216        C217   1.416       .  A
C217        C218   1.410       .  A
C217       Br224   1.925       .  S
C218        C219   1.434       .  A
C218       Br223   1.931       .  S
C219        C220   1.457       .  A
C220       Br221   1.932       .  S
C225        C226   1.451       .  A
C225        C230   1.423       .  A
C225       Br232   1.928       .  S
C226        C227   1.444       .  A
C227        C228   1.411       .  A
C227       Br234   1.948       .  S
C228        C229   1.411       .  A
C228       Br233   1.928       .  S
C229        C230   1.413       .  A
C230       Br231   1.948       .  S
C235        C236   1.399       .  A
C235        C240   1.394       .  A
C235       Br242   1.923       .  S
C236        C237   1.399       .  A
C237        C238   1.417       .  A
C237       Br244   1.938       .  S
C238        C239   1.455       .  A
C238       Br243   1.929       .  S
C239        C240   1.447       .  A
C240       Br241   1.947       .  S
C245        C246   1.452       .  A
C245        C250   1.421       .  A
C245       Br252   1.928       .  S
C246        C247   1.463       .  A
C247        C248   1.418       .  A
C247       Br254   1.942       .  S
C248        C249   1.392       .  A
C248       Br253   1.943       .  S
C249        C250   1.395       .  A
C250       Br251   1.929       .  S
C255        C256   1.448       .  A
C255        C260   1.400       .  A
C255       Br262   1.950       .  S
C256        C257   1.458       .  A
C257        C258   1.431       .  A
C257       Br264   1.932       .  S
C258        C259   1.405       .  A
C258       Br263   1.937       .  S
C259        C260   1.404       .  A
C260       Br261   1.943       .  S
C265        C266   1.458       .  A
C265        C270   1.430       .  A
C265       Br272   1.951       .  S
C266        C267   1.418       .  A
C267        C268   1.401       .  A
C267       Br274   1.935       .  S
C268        C269   1.404       .  A
C268       Br273   1.917       .  S
C269        C270   1.415       .  A
C270       Br271   1.924       .  S
C275        C276   1.449       .  A
C275        C280   1.420       .  A
C275       Br282   1.924       .  S
C276        C277   1.454       .  A
C277        C278   1.409       .  A
C277       Br284   1.944       .  S
C278        C279   1.404       .  A
C278       Br283   1.934       .  S
C279        C280   1.401       .  A
C280       Br281   1.940       .  S
C285        C286   1.412       .  A
C285        C290   1.427       .  A
C285       Br292   1.933       .  S
C286        C287   1.401       .  A
C287        C288   1.405       .  A
C287       Br294   1.938       .  S
C288        C289   1.449       .  A
C288       Br293   1.951       .  S
C289        C290   1.448       .  A
C290       Br291   1.942       .  S
C295        C296   1.408       .  A
C295        C300   1.420       .  A
C295       Br302   1.930       .  S
C296        C297   1.406       .  A
C297        C298   1.418       .  A
C297       Br304   1.948       .  S
C298        C299   1.459       .  A
C298       Br303   1.953       .  S
C299        C300   1.437       .  A
C300       Br301   1.944       .  S
C305        C306   1.454       .  A
C305        C310   1.412       .  A
C305       Br312   1.926       .  S
C306        C307   1.447       .  A
C307        C308   1.403       .  A
C307       Br314   1.932       .  S
C308        C309   1.386       .  A
C308       Br313   1.919       .  S
C309        C310   1.404       .  A
C310       Br311   1.947       .  S
C315        C316   1.390       .  A
C315        C320   1.413       .  A
C315       Br322   1.925       .  S
C316        C317   1.404       .  A
C317        C318   1.431       .  A
C317       Br324   1.932       .  S
C318        C319   1.455       .  A
C318       Br323   1.913       .  S
C319        C320   1.450       .  A
C320       Br321   1.904       .  S
C325        C326   1.400       .  A
C325        C330   1.412       .  A
C325       Br332   1.927       .  S
C326        C327   1.387       .  A
C327        C328   1.408       .  A
C327       Br334   1.917       .  S
C328        C329   1.457       .  A
C328       Br333   1.931       .  S
C329        C330   1.448       .  A
C330       Br331   1.929       .  S
C335        C336   1.403       .  A
C335        C340   1.392       .  A
C335       Br342   1.924       .  S
C336        C337   1.396       .  A
C337        C338   1.418       .  A
C337       Br344   1.936       .  S
C338        C339   1.460       .  A
C338       Br343   1.929       .  S
C339        C340   1.435       .  A
C340       Br341   1.938       .  S
C345        C346   1.403       .  A
C345        C350   1.423       .  A
C345       Br352   1.932       .  S
C346        C347   1.399       .  A
C347        C348   1.419       .  A
C347       Br354   1.926       .  S
C348        C349   1.451       .  A
C348       Br353   1.936       .  S
C349        C350   1.456       .  A
C350       Br351   1.923       .  S
C355        C356   1.404       .  A
C355        C360   1.409       .  A
C355       Br362   1.928       .  S
C356        C357   1.390       .  A
C357        C358   1.418       .  A
C357       Br364   1.936       .  S
C358        C359   1.455       .  A
C358       Br363   1.929       .  S
C359        C360   1.451       .  A
C360       Br361   1.961       .  S
C365        C366   1.406       .  A
C365        C370   1.406       .  A
C365       Br372   1.943       .  S
C366        C367   1.406       .  A
C367        C368   1.414       .  A
C367       Br374   1.944       .  S
C368        C369   1.452       .  A
C368       Br373   1.937       .  S
C369        C370   1.449       .  A
C370       Br371   1.943       .  S
C375        C376   1.401       .  A
C375        C380   1.411       .  A
C375       Br382   1.927       .  S
C376        C377   1.390       .  A
C377        C378   1.405       .  A
C377       Br384   1.923       .  S
C378        C379   1.446       .  A
C378       Br383   1.919       .  S
C379        C380   1.447       .  A
C380       Br381   1.930       .  S
C385        C386   1.449       .  A
C385        C390   1.426       .  A
C385       Br392   1.937       .  S
C386        C387   1.466       .  A
C387        C388   1.409       .  A
C387       Br394   1.963       .  S
C388        C389   1.395       .  A
C388       Br393   1.935       .  S
C389        C390   1.400       .  A
C390       Br391   1.936       .  S
C395        C396   1.400       .  A
C395        C400   1.407       .  A
C395       Br402   1.932       .  S
C396        C397   1.391       .  A
C397        C398   1.413       .  A
C397       Br404   1.924       .  S
C398        C399   1.442       .  A
C398       Br403   1.902       .  S
C399        C400   1.442       .  A
C400       Br401   1.928       .  S
C405        C406   1.399       .  A
C405        C410   1.415       .  A
C405       Br412   1.929       .  S
C406        C407   1.396       .  A
C407        C408   1.411       .  A
C407       Br414   1.932       .  S
C408        C409   1.457       .  A
C408       Br413   1.938       .  S
C409        C410   1.449       .  A
C410       Br411   1.924       .  S
C415        C416   1.411       .  A
C415        C420   1.406       .  A
C415       Br422   1.928       .  S
C416        C417   1.397       .  A
C417        C418   1.408       .  A
C417       Br424   1.936       .  S
C418        C419   1.455       .  A
C418       Br423   1.950       .  S
C419        C420   1.429       .  A
C420       Br421   1.940       .  S
C425        C426   1.457       .  A
C425        C430   1.425       .  A
C425       Br432   1.937       .  S
C426        C427   1.461       .  A
C427        C428   1.410       .  A
C427       Br434   1.934       .  S
C428        C429   1.400       .  A
C428       Br433   1.946       .  S
C429        C430   1.410       .  A
C430       Br431   1.943       .  S
C435        C436   1.384       .  A
C435        C440   1.411       .  A
C435       Br442   1.936       .  S
C436        C437   1.400       .  A
C437        C438   1.407       .  A
C437       Br444   1.933       .  S
C438        C439   1.452       .  A
C438       Br443   1.939       .  S
C439        C440   1.452       .  A
C440       Br441   1.910       .  S
O445        C453   1.267       .  A
O445       Co465   2.014       .  S
O446        C454   1.298       .  A
O446       Co466   2.112       .  S
O447        C455   1.246       .  A
O447       Co467   1.954       .  S
O448        C456   1.262       .  A
O448       Co468   1.979       .  S
O449        C455   1.264       .  A
O449       Co466   2.028       .  S
O450        C456   1.277       .  A
O450       Co465   2.045       .  S
O451        C454   1.262       .  A
O451       Co468   1.893       .  S
O452        C453   1.250       .  A
O452       Co467   1.940       .  S
C453        C880   1.470       .  S
C454        C850   1.488       .  S
C455        C840   1.476       .  S
C456        C833   1.500       .  S
O457        C470   1.241       .  A
O457       Co465   1.938       .  S
O458        C471   1.264       .  A
O458       Co466   1.983       .  S
O459        C472   1.270       .  A
O459       Co467   2.034       .  S
O460        C473   1.297       .  A
O460       Co468   2.101       .  S
O461        C473   1.262       .  A
O461       Co466   1.878       .  S
O462        C472   1.253       .  A
O462       Co465   1.951       .  S
O463        C470   1.262       .  A
O463       Co468   2.030       .  S
O464        C471   1.274       .  A
O464       Co467   2.026       .  S
Co465       O469   2.042       .  S
Co466       O469   2.033       .  S
Co467       O469   2.022       .  S
Co468       O469   2.025       .  S
C470        C860   1.477       .  S
C471        C873   1.514       .  S
C472        C820   1.479       .  S
C473        C810   1.489       .  S
O474        C482   1.272       .  A
O474       Co494   2.037       .  S
O475        C483   1.297       .  A
O475       Co495   2.116       .  S
O476        C484   1.237       .  A
O477        C485   1.264       .  A
O477       Co497   1.990   1_556  S
O478        C484   1.262       .  A
O478       Co495   2.020   1_655  S
O479        C485   1.283       .  A
O479       Co494   2.063   1_455  S
O480        C483   1.265       .  A
O481        C482   1.251       .  A
O481       Co496   1.946   1_556  S
C482        C770   1.484       .  S
C483        C740   1.499       .  S
C484        C753   1.468       .  S
C485        C760   1.520       .  S
O486        C499   1.240       .  A
O486       Co494   1.949   1_455  S
O487        C500   1.267       .  A
O487       Co495   1.996   1_655  S
O488        C501   1.272       .  A
O488       Co496   2.033   1_556  S
O489        C502   1.295       .  A
O490        C502   1.269       .  A
O490       Co495   1.910       .  S
O491        C501   1.252       .  A
O491       Co494   1.949       .  S
O492        C499   1.263       .  A
O492       Co497   2.024   1_556  S
O493        C500   1.280       .  A
Co494       O498   2.030       .  S
Co496       O498   2.038   1_554  S
Co497       O498   2.040   1_454  S
C499        C780   1.483       .  S
C500        C790   1.510       .  S
C501        C800   1.488       .  S
C502        C730   1.496       .  S
C503        C710   1.621       .  S
C503        C720   1.603       .  S
C503        C803   1.589       .  S
C503        C863   1.607       .  S
O504        C512   1.280       .  A
O504       Co524   2.065   1_545  S
O505        C513   1.299       .  A
O505       Co525   2.117       .  S
O506        C514   1.244       .  A
O507        C515   1.269       .  A
O507       Co527   1.989   1_556  S
O508        C514   1.269       .  A
O508       Co525   2.035   1_545  S
O509        C515   1.275       .  A
O509       Co524   2.031       .  S
O510        C513   1.264       .  A
O511        C512   1.246       .  A
O511       Co526   1.937       .  S
C512        C723   1.493       .  S
C513        C693   1.491       .  S
C514        C640   1.504       .  S
C515        C673   1.509       .  S
O516        C529   1.246       .  A
O516       Co524   1.958       .  S
O517        C530   1.266       .  A
O517       Co525   1.994   1_545  S
O518        C531   1.271       .  A
O518       Co526   2.044       .  S
O519        C532   1.302       .  A
O520        C532   1.264       .  A
O520       Co525   1.897       .  S
O521        C531   1.245       .  A
O521       Co524   1.942   1_545  S
O522        C529   1.265       .  A
O522       Co527   2.050   1_556  S
O523        C530   1.277       .  A
Co524       O528   2.028   1_565  S
Co526       O528   2.036       .  S
Co527       O528   2.023   1_564  S
C529        C703   1.500       .  S
C530        C653   1.517       .  S
C531        C680   1.484       .  S
C532        C660   1.505       .  S
C533        C630   1.608       .  S
C533        C700   1.621       .  S
C533        C763   1.631       .  S
C533        C870   1.637       .  S
O534        C542   1.282       .  A
O534       Co554   2.072       .  S
O535        C543   1.295       .  A
O535       Co555   2.102       .  S
O536        C544   1.242       .  A
O536       Co556   1.938   1_565  S
O537        C545   1.275       .  A
O537       Co557   1.986       .  S
O538        C544   1.268       .  A
O538       Co555   2.038   1_655  S
O539        C545   1.276       .  A
O539       Co554   2.038   1_455  S
O540        C543   1.270       .  A
O540       Co557   1.933   1_565  S
O541        C542   1.251       .  A
O541       Co556   1.944       .  S
C542        C713   1.496       .  S
C543        C633   1.542       .  S
C544        C593   1.493       .  S
C545        C570   1.510       .  S
O546        C559   1.245       .  A
O546       Co554   1.960   1_455  S
O547        C560   1.267       .  A
O547       Co555   1.990   1_655  S
O548        C561   1.270       .  A
O548       Co556   2.044       .  S
O549        C562   1.292       .  A
O549       Co557   2.098   1_565  S
O550        C562   1.266       .  A
O550       Co555   1.913       .  S
O551        C561   1.242       .  A
O551       Co554   1.935       .  S
O552        C559   1.269       .  A
O552       Co557   2.045       .  S
O553        C560   1.280       .  A
O553       Co556   2.049   1_565  S
Co554       O558   2.019       .  S
Co555       O558   2.036   1_465  S
Co556       O558   2.049       .  S
Co557       O558   2.049   1_455  S
C559        C583   1.495       .  S
C560        C613   1.507       .  S
C561        C620   1.506       .  S
C562        C603   1.485       .  S
C563        C610   1.620       .  S
C563        C690   1.616       .  S
C563        C750   1.605       .  S
C563        C853   1.605       .  S
C564        C580   1.643       .  S
C564        C650   1.622       .  S
C564        C733   1.606       .  S
C564        C883   1.587       .  S
C565        C623   1.601       .  S
C565        C643   1.628       .  S
C565        C793   1.626       .  S
C565        C830   1.622       .  S
C566        C600   1.620       .  S
C566        C663   1.610       .  S
C566        C743   1.602       .  S
C566        C843   1.590       .  S
C567        C573   1.618       .  S
C567        C683   1.597       .  S
C567        C783   1.596       .  S
C567        C823   1.597       .  S
C568        C590   1.595       .  S
C568        C670   1.609       .  S
C568        C773   1.606       .  S
C568        C813   1.602       .  S
C569        C570   1.404       .  A
C569        C574   1.430       .  A
C569       Br576   1.937       .  S
C570        C571   1.386       .  A
C571        C572   1.405       .  A
C571       Br578   1.910       .  S
C572        C573   1.450       .  A
C572       Br577   1.940       .  S
C573        C574   1.461       .  A
C574       Br575   1.928       .  S
C579        C580   1.466       .  A
C579        C584   1.423       .  A
C579       Br586   1.942       .  S
C580        C581   1.461       .  A
C581        C582   1.410       .  A
C581       Br588   1.945       .  S
C582        C583   1.388       .  A
C582       Br587   1.934       .  S
C583        C584   1.405       .  A
C584       Br585   1.951       .  S
C589        C590   1.445       .  A
C589        C594   1.421       .  A
C589       Br596   1.933       .  S
C590        C591   1.443       .  A
C591        C592   1.399       .  A
C591       Br598   1.945       .  S
C592        C593   1.398       .  A
C592       Br597   1.915       .  S
C593        C594   1.417       .  A
C594       Br595   1.945       .  S
C599        C600   1.460       .  A
C599        C604   1.412       .  A
C599       Br606   1.941       .  S
C600        C601   1.442       .  A
C601        C602   1.404       .  A
C601       Br608   1.914       .  S
C602        C603   1.392       .  A
C602       Br607   1.922       .  S
C603        C604   1.394       .  A
C604       Br605   1.916       .  S
C609        C610   1.456       .  A
C609        C614   1.415       .  A
C609       Br616   1.949       .  S
C610        C611   1.453       .  A
C611        C612   1.419       .  A
C611       Br618   1.933       .  S
C612        C613   1.398       .  A
C612       Br617   1.935       .  S
C613        C614   1.394       .  A
C614       Br615   1.913       .  S
C619        C620   1.412       .  A
C619        C624   1.413       .  A
C619       Br626   1.952       .  S
C620        C621   1.398       .  A
C621        C622   1.417       .  A
C621       Br628   1.941       .  S
C622        C623   1.462       .  A
C622       Br627   1.942       .  S
C623        C624   1.451       .  A
C624       Br625   1.947       .  S
C629        C630   1.444       .  A
C629        C634   1.420       .  A
C629       Br636   1.942       .  S
C630        C631   1.447       .  A
C631        C632   1.433       .  A
C631       Br638   1.953       .  S
C632        C633   1.426       .  A
C632       Br637   1.932       .  S
C633        C634   1.420       .  A
C634       Br635   1.933       .  S
C639        C640   1.413       .  A
C639        C644   1.424       .  A
C639       Br646   1.938       .  S
C640        C641   1.389       .  A
C641        C642   1.411       .  A
C641       Br648   1.933       .  S
C642        C643   1.446       .  A
C642       Br647   1.892       .  S
C643        C644   1.455       .  A
C644       Br645   1.932       .  S
C649        C650   1.465       .  A
C649        C654   1.430       .  A
C649       Br656   1.935       .  S
C650        C651   1.435       .  A
C651        C652   1.402       .  A
C651       Br658   1.911       .  S
C652        C653   1.402       .  A
C652       Br657   1.920       .  S
C653        C654   1.408       .  A
C654       Br655   1.940       .  S
C659        C660   1.401       .  A
C659        C664   1.407       .  A
C659       Br666   1.930       .  S
C660        C661   1.415       .  A
C661        C662   1.410       .  A
C661       Br668   1.925       .  S
C662        C663   1.433       .  A
C662       Br667   1.931       .  S
C663        C664   1.457       .  A
C664       Br665   1.932       .  S
C669        C670   1.451       .  A
C669        C674   1.423       .  A
C669       Br676   1.928       .  S
C670        C671   1.444       .  A
C671        C672   1.411       .  A
C671       Br678   1.948       .  S
C672        C673   1.411       .  A
C672       Br677   1.928       .  S
C673        C674   1.413       .  A
C674       Br675   1.948       .  S
C679        C680   1.399       .  A
C679        C684   1.394       .  A
C679       Br686   1.923       .  S
C680        C681   1.399       .  A
C681        C682   1.417       .  A
C681       Br688   1.938       .  S
C682        C683   1.455       .  A
C682       Br687   1.929       .  S
C683        C684   1.447       .  A
C684       Br685   1.947       .  S
C689        C690   1.452       .  A
C689        C694   1.421       .  A
C689       Br696   1.928       .  S
C690        C691   1.463       .  A
C691        C692   1.418       .  A
C691       Br698   1.942       .  S
C692        C693   1.392       .  A
C692       Br697   1.943       .  S
C693        C694   1.395       .  A
C694       Br695   1.929       .  S
C699        C700   1.448       .  A
C699        C704   1.400       .  A
C699       Br706   1.950       .  S
C700        C701   1.458       .  A
C701        C702   1.431       .  A
C701       Br708   1.932       .  S
C702        C703   1.405       .  A
C702       Br707   1.937       .  S
C703        C704   1.404       .  A
C704       Br705   1.943       .  S
C709        C710   1.458       .  A
C709        C714   1.430       .  A
C709       Br716   1.951       .  S
C710        C711   1.418       .  A
C711        C712   1.401       .  A
C711       Br718   1.935       .  S
C712        C713   1.404       .  A
C712       Br717   1.917       .  S
C713        C714   1.415       .  A
C714       Br715   1.924       .  S
C719        C720   1.449       .  A
C719        C724   1.420       .  A
C719       Br726   1.924       .  S
C720        C721   1.454       .  A
C721        C722   1.409       .  A
C721       Br728   1.944       .  S
C722        C723   1.404       .  A
C722       Br727   1.934       .  S
C723        C724   1.401       .  A
C724       Br725   1.940       .  S
C729        C730   1.412       .  A
C729        C734   1.427       .  A
C729       Br736   1.933       .  S
C730        C731   1.401       .  A
C731        C732   1.405       .  A
C731       Br738   1.938       .  S
C732        C733   1.449       .  A
C732       Br737   1.951       .  S
C733        C734   1.448       .  A
C734       Br735   1.942       .  S
C739        C740   1.408       .  A
C739        C744   1.420       .  A
C739       Br746   1.930       .  S
C740        C741   1.406       .  A
C741        C742   1.418       .  A
C741       Br748   1.948       .  S
C742        C743   1.459       .  A
C742       Br747   1.953       .  S
C743        C744   1.437       .  A
C744       Br745   1.944       .  S
C749        C750   1.454       .  A
C749        C754   1.412       .  A
C749       Br756   1.926       .  S
C750        C751   1.447       .  A
C751        C752   1.403       .  A
C751       Br758   1.932       .  S
C752        C753   1.386       .  A
C752       Br757   1.919       .  S
C753        C754   1.404       .  A
C754       Br755   1.947       .  S
C759        C760   1.390       .  A
C759        C764   1.413       .  A
C759       Br766   1.925       .  S
C760        C761   1.404       .  A
C761        C762   1.431       .  A
C761       Br768   1.932       .  S
C762        C763   1.455       .  A
C762       Br767   1.913       .  S
C763        C764   1.450       .  A
C764       Br765   1.904       .  S
C769        C770   1.400       .  A
C769        C774   1.412       .  A
C769       Br776   1.927       .  S
C770        C771   1.387       .  A
C771        C772   1.408       .  A
C771       Br778   1.917       .  S
C772        C773   1.457       .  A
C772       Br777   1.931       .  S
C773        C774   1.448       .  A
C774       Br775   1.929       .  S
C779        C780   1.403       .  A
C779        C784   1.392       .  A
C779       Br786   1.924       .  S
C780        C781   1.396       .  A
C781        C782   1.418       .  A
C781       Br788   1.936       .  S
C782        C783   1.460       .  A
C782       Br787   1.929       .  S
C783        C784   1.435       .  A
C784       Br785   1.938       .  S
C789        C790   1.403       .  A
C789        C794   1.423       .  A
C789       Br796   1.932       .  S
C790        C791   1.399       .  A
C791        C792   1.419       .  A
C791       Br798   1.926       .  S
C792        C793   1.451       .  A
C792       Br797   1.936       .  S
C793        C794   1.456       .  A
C794       Br795   1.923       .  S
C799        C800   1.404       .  A
C799        C804   1.409       .  A
C799       Br806   1.928       .  S
C800        C801   1.390       .  A
C801        C802   1.418       .  A
C801       Br808   1.936       .  S
C802        C803   1.455       .  A
C802       Br807   1.929       .  S
C803        C804   1.451       .  A
C804       Br805   1.961       .  S
C809        C810   1.406       .  A
C809        C814   1.406       .  A
C809       Br816   1.943       .  S
C810        C811   1.406       .  A
C811        C812   1.414       .  A
C811       Br818   1.944       .  S
C812        C813   1.452       .  A
C812       Br817   1.937       .  S
C813        C814   1.449       .  A
C814       Br815   1.943       .  S
C819        C820   1.401       .  A
C819        C824   1.411       .  A
C819       Br826   1.927       .  S
C820        C821   1.390       .  A
C821        C822   1.405       .  A
C821       Br828   1.923       .  S
C822        C823   1.446       .  A
C822       Br827   1.919       .  S
C823        C824   1.447       .  A
C824       Br825   1.930       .  S
C829        C830   1.449       .  A
C829        C834   1.426       .  A
C829       Br836   1.937       .  S
C830        C831   1.466       .  A
C831        C832   1.410       .  A
C831       Br838   1.963       .  S
C832        C833   1.395       .  A
C832       Br837   1.935       .  S
C833        C834   1.400       .  A
C834       Br835   1.936       .  S
C839        C840   1.400       .  A
C839        C844   1.407       .  A
C839       Br846   1.932       .  S
C840        C841   1.391       .  A
C841        C842   1.413       .  A
C841       Br848   1.924       .  S
C842        C843   1.442       .  A
C842       Br847   1.902       .  S
C843        C844   1.442       .  A
C844       Br845   1.928       .  S
C849        C850   1.399       .  A
C849        C854   1.415       .  A
C849       Br856   1.929       .  S
C850        C851   1.396       .  A
C851        C852   1.411       .  A
C851       Br858   1.932       .  S
C852        C853   1.457       .  A
C852       Br857   1.938       .  S
C853        C854   1.449       .  A
C854       Br855   1.924       .  S
C859        C860   1.411       .  A
C859        C864   1.406       .  A
C859       Br866   1.928       .  S
C860        C861   1.397       .  A
C861        C862   1.408       .  A
C861       Br868   1.936       .  S
C862        C863   1.455       .  A
C862       Br867   1.950       .  S
C863        C864   1.429       .  A
C864       Br865   1.940       .  S
C869        C870   1.457       .  A
C869        C874   1.425       .  A
C869       Br876   1.937       .  S
C870        C871   1.461       .  A
C871        C872   1.410       .  A
C871       Br878   1.934       .  S
C872        C873   1.400       .  A
C872       Br877   1.946       .  S
C873        C874   1.410       .  A
C874       Br875   1.943       .  S
C879        C880   1.384       .  A
C879        C884   1.411       .  A
C879       Br886   1.936       .  S
C880        C881   1.400       .  A
C881        C882   1.407       .  A
C881       Br888   1.933       .  S
C882        C883   1.452       .  A
C882       Br887   1.939       .  S
C883        C884   1.452       .  A
C884       Br885   1.910       .  S
