geometry optimzed in LAMMPS
_audit_creation_date              2020-11-30 
_audit_creation_method            'lammps2cif' 
_symmetry_space_group_name_H-M    'P1' 
_symmetry_Int_Tables_number       1 
_symmetry_cell_setting            triclinic 
loop_ 
_symmetry_equiv_pos_as_xyz 
  x,y,z 
_cell_length_a                    34.48588533 
_cell_length_b                    44.006095758566225 
_cell_length_c                    33.78951708202201 
_cell_angle_alpha                 90.12225058524996 
_cell_angle_beta                  89.58102805734093 
_cell_angle_gamma                 89.94070093965325 
loop_ 
_atom_site_label 
_atom_site_type_symbol 
_atom_site_fract_x 
_atom_site_fract_y 
_atom_site_fract_z 
_atom_site_charge 
O1          O  0.42728648  0.44302175  0.58484745    -0.74700
O2          O  0.46387736  0.40836746  0.55092699    -0.53600
C3          C  0.43696882  0.41553442  0.57589546     0.79000
O4          O  0.42344108  0.54599031  0.43116501    -0.59300
O5          O  0.45396027  0.58283998  0.46692409    -0.52300
C6          C  0.42945996  0.57392536  0.44072190     0.71100
O7          O  0.42828913  0.44382315  0.43173460    -0.73800
O8          O  0.46488671  0.40887703  0.46429858    -0.54400
C9          C  0.43833144  0.41630013  0.43945853     0.77100
O10         O  0.42304614  0.54531777  0.58737084    -0.59000
O11         O  0.45534855  0.58224020  0.55313208    -0.52100
C12         C  0.42981633  0.57326536  0.57850353     0.73700
Zr13       Zr  0.44560824  0.49491910  0.56731987     2.54700
O14         O  0.37518752  0.49279163  0.56444174    -0.79600
O15         O  0.44705455  0.49318550  0.63930946    -0.93000
Zr16       Zr  0.44597398  0.49544763  0.45019568     2.64700
O17         O  0.37535491  0.49422792  0.45146653    -0.97900
O18         O  0.44898436  0.49393112  0.37821022    -0.80000
O19         O  0.44678248  0.46550540  0.50851838    -0.83300
O20         O  0.44353662  0.52466750  0.50903815    -2.18100
O21         O  0.57380905  0.55061904  0.59074446    -0.66700
O22         O  0.54144968  0.58531615  0.55307234    -0.51300
C23         C  0.56516829  0.57798256  0.58078580     0.72000
O24         O  0.58743175  0.44941492  0.43515629    -0.59600
O25         O  0.55287115  0.41198039  0.46558411    -0.51600
C26         C  0.58025253  0.42122659  0.44247834     0.73800
O27         O  0.57707831  0.55112265  0.42950186    -0.71000
O28         O  0.54064047  0.58562464  0.46355631    -0.49700
C29         C  0.56672615  0.57858590  0.43747730     0.75200
O30         O  0.58407106  0.44947547  0.58463518    -0.66400
O31         O  0.55170256  0.41203677  0.55181977    -0.53600
C32         C  0.57766926  0.42145489  0.57622094     0.73600
Zr33       Zr  0.56009377  0.49945104  0.56678278     2.77500
O34         O  0.63032566  0.50396558  0.56098664    -0.97100
O35         O  0.56197892  0.49659966  0.63867166    -0.77900
Zr36       Zr  0.55993524  0.49940800  0.44936274     2.70100
O37         O  0.62966743  0.50406674  0.43976304    -0.79200
O38         O  0.54783531  0.49483328  0.37871226    -0.98300
Zr39       Zr  0.50652874  0.43820677  0.50832912     2.21500
Zr40       Zr  0.49989765  0.55616980  0.50883510     2.11100
O41         O  0.55962624  0.52896091  0.50821191    -2.47000
O42         O  0.56258055  0.46996184  0.50803250    -0.79000
O43         O  0.50098939  0.52692321  0.56823348    -0.71200
O44         O  0.50479400  0.46744228  0.44888569    -2.32100
O45         O  0.50470720  0.46744168  0.56800227    -2.28300
O46         O  0.50128143  0.52745166  0.44896321    -0.72900
H47         H  0.42019319  0.53675406  0.50924981     0.79100
H48         H  0.50572149  0.45438550  0.42588575     0.80200
H49         H  0.58126572  0.54285165  0.50806684     0.82400
H50         H  0.50540893  0.45444053  0.59097630     0.80000
H51         H  0.42372941  0.48534259  0.37007960     0.43000
H52         H  0.52922024  0.51131372  0.37277472     0.42000
H53         H  0.64080548  0.49821874  0.46557297     0.41700
H54         H  0.63496569  0.51804078  0.53866243     0.39600
H55         H  0.53438666  0.49621575  0.64693505     0.42700
H56         H  0.41946076  0.49437154  0.64748558     0.37500
H57         H  0.36926471  0.49256403  0.53583313     0.43600
H58         H  0.36788317  0.49128041  0.42348432     0.40000
H59         H  0.63825525  0.51554834  0.58473506     0.45000
H60         H  0.45818608  0.51296980  0.64734838     0.43700
H61         H  0.36863980  0.47477707  0.46448596     0.43800
H62         H  0.57237892  0.50120917  0.36587094     0.44200
O63         O  0.91074526  0.46844179  0.92166333    -0.74700
O64         O  0.94677679  0.43406583  0.95619997    -0.53600
C65         C  0.92100833  0.44113391  0.93047420     0.79000
O66         O  0.06026960  0.57752926  0.92634851    -0.59300
O67         O  0.02269989  0.61228575  0.95879208    -0.52300
C68         C  0.05039265  0.60512168  0.93453277     0.71100
O69         O  0.06428164  0.47480766  0.92120880    -0.73800
O70         O  0.03266793  0.43795362  0.95606222    -0.54400
C71         C  0.05755544  0.44676730  0.92981647     0.77100
O72         O  0.90255791  0.57047008  0.92440110    -0.59000
O73         O  0.93362711  0.60729648  0.95942756    -0.52100
C74         C  0.90826948  0.59837559  0.93406582     0.73700
Zr75       Zr  0.92782280  0.52044902  0.94093531     2.54700
O76         O  0.93791535  0.52221668  0.86958499    -0.79600
O77         O  0.85756967  0.51657415  0.93589248    -0.93000
Zr78       Zr  0.04198268  0.52516429  0.94295118     2.64700
O79         O  0.03936556  0.52718830  0.87097458    -0.97900
O80         O  0.11245921  0.52473622  0.94520929    -0.80000
O81         O  0.98686638  0.49296176  0.94071939    -0.83300
O82         O  0.98295396  0.55277582  0.94163785    -2.18100
O83         O  0.90015653  0.57077805  0.07681282    -0.66700
O84         O  0.93434910  0.60798075  0.04484538    -0.51300
C85         C  0.90767534  0.59879549  0.06887418     0.72000
O86         O  0.06331539  0.47307293  0.07836107    -0.59600
O87         O  0.03207043  0.43721578  0.04248722    -0.51600
C88         C  0.05710632  0.44513216  0.06845758     0.73800
O89         O  0.05389498  0.57530141  0.08276364    -0.71000
O90         O  0.02026139  0.61056609  0.04732269    -0.49700
C91         C  0.04436939  0.60284822  0.07451632     0.75200
O92         O  0.90754448  0.46865548  0.07779329    -0.66400
O93         O  0.94562601  0.43440226  0.04437717    -0.53600
C94         C  0.91881911  0.44144269  0.06957060     0.73600
Zr95       Zr  0.92447956  0.52040139  0.05833953     2.77500
O96         O  0.92675153  0.52022566  0.13036205    -0.97100
O97         O  0.85403194  0.51769218  0.05557452    -0.77900
Zr98       Zr  0.03871120  0.52374992  0.06102134     2.70100
O99         O  0.02606896  0.51973650  0.13177297    -0.79200
O100        O  0.10871754  0.52812321  0.06830116    -0.98300
Zr101      Zr  0.98708730  0.46390893  0.00008192     2.21500
Zr102      Zr  0.98021900  0.58163357  0.00153966     2.11100
O103        O  0.98004854  0.55195170  0.06062545    -2.47000
O104        O  0.98321251  0.49223011  0.06005437    -0.79000
O105        O  0.92401830  0.54998122  0.99980248    -0.71200
O106        O  0.04320641  0.49542376  0.00140678    -2.32100
O107        O  0.92714409  0.49098260  0.99947750    -2.28300
O108        O  0.03976257  0.55392107  0.00254311    -0.72900
H109        H  0.98247833  0.56607515  0.91894130     0.79100
H110        H  0.06661355  0.48335802  0.00140326     0.80200
H111        H  0.97857726  0.56480809  0.08378715     0.82400
H112        H  0.90547365  0.47711095  0.99903563     0.80000
H113        H  0.11860602  0.52866059  0.97333154     0.43000
H114        H  0.11951842  0.51030978  0.05405245     0.42000
H115        H  0.05116932  0.51337002  0.14314109     0.41700
H116        H  0.94085131  0.53900875  0.13754444     0.39600
H117        H  0.84854838  0.50192517  0.03544461     0.42700
H118        H  0.84999163  0.50120755  0.95584332     0.37500
H119        H  0.95118905  0.50285845  0.86306849     0.43600
H120        H  0.02307915  0.54510040  0.86491691     0.40000
H121        H  0.89964757  0.52409613  0.13883007     0.45000
H122        H  0.85287002  0.50659813  0.91007057     0.43700
H123        H  0.06585060  0.53324022  0.86272775     0.43800
H124        H  0.11604338  0.54567313  0.05155858     0.44200
C125        C  0.72520215  0.23030689  0.78946472     0.87100
C126        C  0.75052031  0.25063691  0.81594123    -0.53100
C127        C  0.77465057  0.27033090  0.79617700     0.10000
C128        C  0.76950115  0.26850835  0.75060144     0.21000
C129        C  0.70294430  0.25304657  0.76348599    -0.53900
C130        C  0.72567640  0.27372802  0.74462738     0.10100
C131        C  0.75267400  0.21523797  0.75926604    -0.53400
C132        C  0.77624598  0.23487209  0.73935435     0.10700
H133        H  0.74637286  0.25087984  0.84755757     0.15200
H134        H  0.78804757  0.28424645  0.73321579     0.00900
H135        H  0.67198196  0.25245749  0.75827628     0.15500
H136        H  0.75255307  0.19105259  0.75293521     0.15300
O137        O  0.55818093  0.04824062  0.91565040    -0.74700
O138        O  0.52976367  0.08369822  0.95555561    -0.53600
C139        C  0.55326511  0.07579441  0.92780568     0.79000
O140        O  0.39211799  0.95229766  0.92836919    -0.59300
O141        O  0.42956550  0.91431916  0.95376251    -0.52300
C142        C  0.40045881  0.92409871  0.93365137     0.71100
O143        O  0.40778041  0.05398925  0.92405489    -0.73800
O144        O  0.44713373  0.08720633  0.95684566    -0.54400
C145        C  0.42037555  0.08091090  0.93181818     0.77100
O146        O  0.55272916  0.94596274  0.91183704    -0.59000
O147        O  0.51870142  0.91014438  0.94624624    -0.52100
C148        C  0.54365867  0.91827502  0.91975635     0.73700
Zr149      Zr  0.53398963  0.99735854  0.93142609     2.54700
O150        O  0.51564833  0.99953194  0.86200767    -0.79600
O151        O  0.60288434  0.99741537  0.91501681    -0.93000
Zr152      Zr  0.42029231  0.00159060  0.94441977     2.64700
O153        O  0.41058063  0.99962593  0.87309067    -0.97900
O154        O  0.35183241  0.00927893  0.95940787    -0.80000
O155        O  0.47914363  0.02917141  0.93878950    -0.83300
O156        O  0.47523701  0.96952694  0.93562048    -2.18100
O157        O  0.56399922  0.94221187  0.06297180    -0.66700
O158        O  0.52468943  0.90802192  0.03221428    -0.51300
C159        C  0.55349881  0.91499072  0.05465439     0.72000
O160        O  0.41325141  0.05039616  0.08065173    -0.59600
O161        O  0.44812286  0.08521440  0.04580528    -0.51600
C162        C  0.42269457  0.07803702  0.07225391     0.73800
O163        O  0.40987771  0.94667463  0.07794527    -0.71000
O164        O  0.43822054  0.91062204  0.03929293    -0.49700
C165        C  0.41518538  0.91870570  0.06747685     0.75200
O166        O  0.57192138  0.04257316  0.06818273    -0.66400
O167        O  0.53583812  0.08054822  0.04136804    -0.53600
C168        C  0.56422741  0.07077179  0.06261823     0.73600
Zr169      Zr  0.54516888  0.99387115  0.04817459     2.77500
O170        O  0.54918659  0.99116213  0.11998450    -0.97100
O171        O  0.61471616  0.99212156  0.03584226    -0.77900
Zr172      Zr  0.43112434  0.99830614  0.06077257     2.70100
O173        O  0.44360696  0.99723449  0.13156364    -0.79200
O174        O  0.36109546  0.99937916  0.07056410    -0.98300
Zr175      Zr  0.48720959  0.05612605  0.99947609     2.21500
Zr176      Zr  0.47938269  0.93870385  0.99365325     2.11100
O177        O  0.48634780  0.96643479  0.05396190    -2.47000
O178        O  0.49034461  0.02573609  0.05745479    -0.79000
O179        O  0.53879058  0.96607444  0.98838936    -0.71200
O180        O  0.42705891  0.02951295  0.00380315    -2.32100
O181        O  0.54267157  0.02464981  0.99125022    -2.28300
O182        O  0.42350052  0.97027495  0.00128846    -0.72900
H183        H  0.47223664  0.95705869  0.91227513     0.79100
H184        H  0.40550986  0.04345953  0.00601276     0.80200
H185        H  0.48769531  0.95284257  0.07632094     0.82400
H186        H  0.56615397  0.03653644  0.98980225     0.80000
H187        H  0.33966878  0.01226200  0.93325375     0.43000
H188        H  0.35098991  0.98359606  0.05243859     0.42000
H189        H  0.42197009  0.98523789  0.14291707     0.41700
H190        H  0.57350605  0.00184942  0.12675025     0.39600
H191        H  0.61762226  0.99590872  0.00711081     0.42700
H192        H  0.60462261  0.98831192  0.88823747     0.37500
H193        H  0.52925198  0.01759957  0.85140310     0.43600
H194        H  0.42640110  0.01654834  0.86246761     0.40000
H195        H  0.52828593  0.00477716  0.12967649     0.45000
H196        H  0.61443760  0.98203035  0.93273206     0.43700
H197        H  0.42442294  0.98107783  0.86419651     0.43800
H198        H  0.35685191  0.99097728  0.09741017     0.44200
C199        C  0.26364896  0.73540695  0.70999754     0.87100
C200        C  0.23719066  0.75379203  0.68196546    -0.53100
C201        C  0.21453857  0.77516018  0.70034937     0.10000
C202        C  0.21720127  0.77378209  0.74615033     0.21000
C203        C  0.28450343  0.75964527  0.73468272    -0.53900
C204        C  0.26053775  0.77924701  0.75413850     0.10100
C205        C  0.23400986  0.72037286  0.73777285    -0.53400
C206        C  0.20949012  0.73998823  0.75675836     0.10700
H207        H  0.23456288  0.74977602  0.65065886     0.15200
H208        H  0.19813617  0.79002307  0.76225387     0.00900
H209        H  0.31583873  0.76048491  0.73768818     0.15500
H210        H  0.23277636  0.69597233  0.74235385     0.15300
O211        O  0.92330849  0.07275656  0.41424262    -0.74700
O212        O  0.95868328  0.10739697  0.44877307    -0.53600
C213        C  0.93263970  0.10027885  0.42335798     0.79000
O214        O  0.92502455  0.96603248  0.56806022    -0.59300
O215        O  0.95628689  0.93187364  0.52819491    -0.52300
C216        C  0.93214490  0.93881750  0.55590475     0.71100
O217        O  0.91879906  0.06828091  0.56673799    -0.73800
O218        O  0.95380126  0.10497560  0.53597278    -0.54400
C219        C  0.92654497  0.09627459  0.55979926     0.77100
O220        O  0.92066867  0.96991165  0.41254352    -0.59000
O221        O  0.95678364  0.93395862  0.44388638    -0.52100
C222        C  0.92977364  0.94209729  0.42014689     0.73700
Zr223      Zr  0.94321596  0.02088183  0.43075291     2.54700
O224        O  0.87277144  0.02144843  0.42705347    -0.79600
O225        O  0.95054313  0.02166634  0.35903973    -0.93000
Zr226      Zr  0.94200191  0.01795604  0.54871377     2.64700
O227        O  0.87154933  0.01389683  0.54922044    -0.97900
O228        O  0.94535472  0.01986196  0.62063613    -0.80000
O229        O  0.94150936  0.04879365  0.49103121    -0.83300
O230        O  0.94169767  0.99044682  0.48852208    -2.18100
O231        O  0.07722104  0.96903348  0.40922726    -0.66700
O232        O  0.04285301  0.93320616  0.44339837    -0.51300
C233        C  0.06845416  0.94128343  0.41764821     0.72000
O234        O  0.07788733  0.07008560  0.56765261    -0.59600
O235        O  0.04262101  0.10605959  0.53603088    -0.51600
C236        C  0.06936498  0.09808649  0.56015487     0.73800
O237        O  0.07100630  0.96666164  0.57021992    -0.71000
O238        O  0.03988349  0.93237146  0.53152667    -0.49700
C239        C  0.06259218  0.93917156  0.56003709     0.75200
O240        O  0.08004656  0.07177855  0.41749834    -0.66400
O241        O  0.04600391  0.10706855  0.45342872    -0.53600
C242        C  0.07235543  0.09923279  0.42820846     0.73600
Zr243      Zr  0.05819665  0.02018559  0.43159127     2.77500
O244        O  0.12876058  0.01801186  0.43130713    -0.97100
O245        O  0.05662671  0.02360308  0.35972682    -0.77900
Zr246      Zr  0.05655492  0.01866667  0.54943221     2.70100
O247        O  0.12708411  0.01672727  0.54886788    -0.79200
O248        O  0.05406193  0.01923393  0.62150535    -0.98300
Zr249      Zr  0.99961183  0.07809858  0.49266795     2.21500
Zr250      Zr  0.99994777  0.96144878  0.48730122     2.11100
O251        O  0.05859792  0.99005518  0.48961032    -2.47000
O252        O  0.05772589  0.04870647  0.49141478    -0.79000
O253        O  0.00055936  0.99094344  0.42841403    -0.71200
O254        O  0.99896234  0.04810906  0.55141363    -2.32100
O255        O  0.00085029  0.05027973  0.43176594    -2.28300
O256        O  0.99946513  0.98867157  0.54830267    -0.72900
H257        H  0.91917444  0.97743849  0.48818747     0.79100
H258        H  0.99848181  0.06083675  0.57474947     0.80200
H259        H  0.08098815  0.97684969  0.48949810     0.82400
H260        H  0.00138705  0.06391796  0.40940450     0.80000
H261        H  0.92298249  0.00764743  0.62990178     0.43000
H262        H  0.04340086  0.03943494  0.62860100     0.42000
H263        H  0.13454860  0.02359868  0.52199689     0.41700
H264        H  0.13631387  0.02260045  0.40362736     0.39600
H265        H  0.02889693  0.02635762  0.35332426     0.42700
H266        H  0.92445448  0.02700332  0.34917458     0.37500
H267        H  0.86408074  0.02489370  0.45469534     0.43600
H268        H  0.86560735  0.99648350  0.53169544     0.40000
H269        H  0.13701669  0.03607812  0.44657134     0.45000
H270        H  0.95419945  0.00012775  0.35131568     0.43700
H271        H  0.86482438  0.00669312  0.57615131     0.43800
H272        H  0.03304834  0.00482435  0.62839728     0.44200
C273        C  0.76102361  0.78524988  0.28509635     0.87100
C274        C  0.73331966  0.76708291  0.31220954    -0.53100
C275        C  0.70796773  0.74835876  0.29273746     0.10000
C276        C  0.71165874  0.75078502  0.24710669     0.21000
C277        C  0.78007926  0.76191030  0.25764169    -0.53900
C278        C  0.75471802  0.74384881  0.23785011     0.10100
C279        C  0.73305377  0.80274591  0.25822104    -0.53400
C280        C  0.70688365  0.78516260  0.23871549     0.10700
H281        H  0.73401260  0.76832235  0.34422430     0.15200
H282        H  0.69189016  0.73595253  0.23020511     0.00900
H283        H  0.81128891  0.76021988  0.25352263     0.15500
H284        H  0.73335620  0.82726242  0.25496715     0.15300
C285        C  0.22519182  0.28804239  0.21172228     0.87100
C286        C  0.25291899  0.26836645  0.18669221    -0.53100
C287        C  0.27657637  0.24965016  0.20802127     0.10000
C288        C  0.26901186  0.25136698  0.25326556     0.21000
C289        C  0.20261570  0.26375226  0.23573318    -0.53900
C290        C  0.22513756  0.24476204  0.25802926     0.10100
C291        C  0.25036186  0.30399039  0.24253260    -0.53400
C292        C  0.27340695  0.28527652  0.26414502     0.10700
H293        H  0.25286418  0.26833785  0.15458062     0.15200
H294        H  0.28794463  0.23654712  0.27088200     0.00900
H295        H  0.17142897  0.26092481  0.23522471     0.15500
H296        H  0.25043047  0.32851230  0.24645874     0.15300
C297        C  0.72184440  0.23281584  0.20641467     0.87100
C298        C  0.69516120  0.24944920  0.23589748    -0.53100
C299        C  0.71287347  0.27054413  0.25942889     0.10000
C300        C  0.75738677  0.27174123  0.25241475     0.21000
C301        C  0.74456237  0.25767351  0.18411991    -0.53900
C302        C  0.76249521  0.27856483  0.20791720     0.10100
C303        C  0.75351867  0.21876634  0.23253255    -0.53400
C304        C  0.77147237  0.23868767  0.25720782     0.10700
H305        H  0.66499836  0.24342541  0.23861534     0.15200
H306        H  0.77313651  0.28762900  0.27179914     0.00900
H307        H  0.74812042  0.25802265  0.15229585     0.15500
H308        H  0.76117678  0.19482699  0.23229764     0.15300
C309        C  0.26605681  0.72851387  0.29315514     0.87100
C310        C  0.29173697  0.74917418  0.26669526    -0.53100
C311        C  0.27159306  0.76909947  0.24368704     0.10000
C312        C  0.22734687  0.76496335  0.24641227     0.21000
C313        C  0.23881465  0.75074862  0.31487069    -0.53900
C314        C  0.21797851  0.76936107  0.29064999     0.10100
C315        C  0.24084544  0.71210673  0.26239952    -0.53400
C316        C  0.22055488  0.73091909  0.23789853     0.10700
H317        H  0.32309923  0.74828409  0.26508776     0.15200
H318        H  0.21078494  0.78043825  0.22683623     0.00900
H319        H  0.23786485  0.75255049  0.34687265     0.15500
H320        H  0.23832077  0.68758471  0.26099475     0.15300
C321        C  0.21598599  0.28225868  0.78988312     0.87100
C322        C  0.19146876  0.26325651  0.76077474    -0.53100
C323        C  0.21218850  0.24315265  0.73834047     0.10000
C324        C  0.25639384  0.24535566  0.74450667     0.21000
C325        C  0.24018411  0.25850962  0.81249732    -0.53900
C326        C  0.26177262  0.23914622  0.78912897     0.10100
C327        C  0.24441332  0.29826262  0.76172917    -0.53400
C328        C  0.26607776  0.27923413  0.73860502     0.10700
H329        H  0.16055377  0.26562391  0.75636988     0.15200
H330        H  0.27361644  0.23098349  0.72432870     0.00900
H331        H  0.24043809  0.25747053  0.84460558     0.15500
H332        H  0.24685351  0.32281213  0.75970022     0.15300
C333        C  0.76858717  0.78484207  0.70337709     0.87100
C334        C  0.79281558  0.76876165  0.73550887    -0.53100
C335        C  0.77183989  0.75130254  0.76156536     0.10000
C336        C  0.72795661  0.75229895  0.75362694     0.21000
C337        C  0.74432940  0.75988152  0.68397301    -0.53900
C338        C  0.72344244  0.74268719  0.70995637     0.10100
C339        C  0.73885468  0.80323012  0.72811783    -0.53400
C340        C  0.71856249  0.78659823  0.75522953     0.10700
H341        H  0.82404360  0.77083894  0.73754874     0.15200
H342        H  0.71010821  0.73790048  0.77324901     0.00900
H343        H  0.74378200  0.75605043  0.65220917     0.15500
H344        H  0.73587295  0.82774825  0.72705049     0.15300
C345        C  0.14443958  0.18542889  0.69034697    -0.11300
C346        C  0.15801926  0.18570807  0.65131384     0.11300
C347        C  0.18803335  0.20594199  0.64032075    -0.03100
C348        C  0.20583834  0.22346918  0.67008901    -0.05800
C349        C  0.19328642  0.22225732  0.70974918    -0.16600
C350        C  0.16169773  0.20284921  0.72013829     0.02300
C351        C  0.13925516  0.16430121  0.62335702     0.12300
C352        C  0.19992423  0.20986579  0.59731945     0.62900
H353        H  0.22901842  0.23901936  0.66239998     0.12300
C354        C  0.14487006  0.19841970  0.76154993     0.55000
H355        H  0.12048461  0.17049037  0.69787781     0.08100
C356        C  0.15003251  0.13334685  0.62171175    -0.05700
C357        C  0.12731389  0.11315860  0.59936974    -0.06400
C358        C  0.09274937  0.12233334  0.58060990    -0.16000
C359        C  0.08172138  0.15367615  0.58314127    -0.01600
C360        C  0.10585636  0.17402585  0.60385558    -0.09200
C361        C  0.18449273  0.12147395  0.64498482     0.65100
H362        H  0.13602913  0.08957284  0.59760095     0.10600
C363        C  0.04375539  0.16586111  0.56676023     0.63500
H364        H  0.09782269  0.19771627  0.60689926     0.07900
F365        F  0.14261115  0.16763800  0.76966621    -0.19500
F366        F  0.10781389  0.21045760  0.76283160    -0.15800
F367        F  0.16636622  0.21146608  0.79131768    -0.19300
F368        F  0.16813903  0.21878501  0.57548972    -0.22600
F369        F  0.21401020  0.18280036  0.58221768    -0.24100
F370        F  0.22841064  0.23178030  0.59286980    -0.18100
F371        F  0.03797754  0.19617015  0.57629692    -0.20600
F372        F  0.01311322  0.14961761  0.58262962    -0.21800
F373        F  0.04345245  0.16363804  0.52596542    -0.18900
F374        F  0.19079664  0.09079838  0.63844912    -0.19000
F375        F  0.17800433  0.12556950  0.68507040    -0.22900
F376        F  0.21776948  0.13690658  0.63415936    -0.24500
C377        C  0.19358047  0.17366507  0.31637329    -0.11300
C378        C  0.16352229  0.18582431  0.33953843     0.11300
C379        C  0.15581638  0.21730747  0.33825752    -0.03100
C380        C  0.17761722  0.23547725  0.31213713    -0.05800
C381        C  0.20686644  0.22333671  0.28734232    -0.16600
C382        C  0.21501550  0.19164041  0.28954213     0.02300
C383        C  0.13891585  0.16452805  0.36272852     0.12300
C384        C  0.12454621  0.23154252  0.36425653     0.62900
H385        H  0.17143370  0.25955476  0.31037998     0.12300
C386        C  0.24335580  0.17594384  0.26175728     0.55000
H387        H  0.19892492  0.14945990  0.31837996     0.08100
C388        C  0.10774143  0.14873366  0.34496397    -0.05700
C389        C  0.08570996  0.12864537  0.36821893    -0.06400
C390        C  0.09453132  0.12330622  0.40796231    -0.16000
C391        C  0.12632586  0.13838915  0.42555635    -0.01600
C392        C  0.14787540  0.15917697  0.40257501    -0.09200
C393        C  0.09857300  0.15225838  0.30129593     0.65100
H394        H  0.06192121  0.11614144  0.35521456     0.10600
C395        C  0.13781005  0.13197881  0.46795779     0.63500
H396        H  0.17226779  0.17110629  0.41529294     0.07900
F397        F  0.24129883  0.14459337  0.26467681    -0.19500
F398        F  0.28090025  0.18433177  0.27031350    -0.15800
F399        F  0.23459744  0.18354142  0.22333337    -0.19300
F400        F  0.13372632  0.22737376  0.40362458    -0.22600
F401        F  0.08905362  0.21818796  0.35690804    -0.24100
F402        F  0.12091825  0.26243750  0.35755458    -0.18100
F403        F  0.17102370  0.14755366  0.47860354    -0.20600
F404        F  0.14466263  0.10124085  0.47281785    -0.21800
F405        F  0.10820252  0.14084449  0.49306480    -0.18900
F406        F  0.06591735  0.13595672  0.29071505    -0.19000
F407        F  0.12938807  0.14172435  0.27875782    -0.22900
F408        F  0.09200067  0.18244239  0.29238845    -0.24500
C409        C  0.86528112  0.87139987  0.57293018    -0.11300
C410        C  0.86572789  0.86930454  0.61427467     0.11300
C411        C  0.88944796  0.88918919  0.63649763    -0.03100
C412        C  0.91115601  0.91144114  0.61627659    -0.05800
C413        C  0.91024193  0.91385446  0.57488083    -0.16600
C414        C  0.88687324  0.89362267  0.55270592     0.02300
C415        C  0.83952064  0.84689854  0.63340178     0.12300
C416        C  0.89222474  0.88660719  0.68120497     0.62900
H417        H  0.92932045  0.92705417  0.63261388     0.12300
C418        C  0.88361477  0.89611388  0.50804879     0.55000
H419        H  0.84718168  0.85570435  0.55665273     0.08100
C420        C  0.79987873  0.85330023  0.64019428    -0.05700
C421        C  0.77705320  0.83154976  0.65990777    -0.06400
C422        C  0.79247985  0.80369210  0.67332997    -0.16000
C423        C  0.83034304  0.79545712  0.65936892    -0.01600
C424        C  0.85392390  0.81798805  0.64210116    -0.09200
C425        C  0.78186751  0.88310458  0.62690904     0.65100
H426        H  0.74669486  0.83637803  0.66472158     0.10600
C427        C  0.84685105  0.76342166  0.65901612     0.63500
H428        H  0.88357497  0.81257933  0.63375820     0.07900
F429        F  0.85438409  0.87785623  0.49331916    -0.19500
F430        F  0.91815901  0.88720238  0.49057309    -0.15800
F431        F  0.87534878  0.92577884  0.49756350    -0.19300
F432        F  0.91033750  0.85959985  0.69082228    -0.22600
F433        F  0.85567185  0.88711435  0.69826520    -0.24100
F434        F  0.91335533  0.91027470  0.69733845    -0.18100
F435        F  0.86236118  0.75720098  0.62194637    -0.20600
F436        F  0.81932802  0.74148281  0.66643526    -0.21800
F437        F  0.87610538  0.76111286  0.68660276    -0.18900
F438        F  0.74343698  0.88557916  0.63861151    -0.19000
F439        F  0.78333842  0.88505016  0.58610032    -0.22900
F440        F  0.80184945  0.90733710  0.64296085    -0.24500
C441        C  0.13914534  0.81437983  0.34521749    -0.11300
C442        C  0.14944765  0.84424526  0.33535072     0.11300
C443        C  0.18140947  0.84946457  0.30969896    -0.03100
C444        C  0.20225093  0.82426625  0.29487729    -0.05800
C445        C  0.19275913  0.79437701  0.30580321    -0.16600
C446        C  0.16012427  0.78919456  0.33070538     0.02300
C447        C  0.12816916  0.86953448  0.35516719     0.12300
C448        C  0.19444479  0.88151098  0.29946665     0.62900
H449        H  0.22717998  0.82777721  0.27574452     0.12300
C450        C  0.14711599  0.75738026  0.34191450     0.55000
H451        H  0.11490678  0.81100384  0.36530137     0.08100
C452        C  0.09375271  0.88220830  0.33956472    -0.05700
C453        C  0.07621830  0.90679217  0.35974875    -0.06400
C454        C  0.08978418  0.91679254  0.39661664    -0.16000
C455        C  0.12257112  0.90260859  0.41347703    -0.01600
C456        C  0.14190761  0.87969773  0.39186950    -0.09200
C457        C  0.07477443  0.86895208  0.30290480     0.65100
H458        H  0.05131950  0.91801880  0.34721039     0.10600
C459        C  0.13648241  0.91133077  0.45444564     0.63500
H460        H  0.16748852  0.86892002  0.40389043     0.07900
F461        F  0.17206932  0.74529169  0.36952783    -0.19500
F462        F  0.14648907  0.73890674  0.30878330    -0.15800
F463        F  0.11019485  0.75744519  0.35826281    -0.19300
F464        F  0.20666362  0.89619022  0.33334875    -0.22600
F465        F  0.16427122  0.89781006  0.28323671    -0.24100
F466        F  0.22478102  0.88147678  0.27239691    -0.18100
F467        F  0.16964328  0.89558440  0.46485632    -0.20600
F468        F  0.10787357  0.90479363  0.48200942    -0.21800
F469        F  0.14466924  0.94206782  0.45574159    -0.18900
F470        F  0.04067979  0.88392423  0.29376206    -0.19000
F471        F  0.06596848  0.83870908  0.30933211    -0.22900
F472        F  0.09939377  0.87099058  0.27062774    -0.24500
C473        C  0.82644918  0.82364007  0.36305174    -0.11300
C474        C  0.83575476  0.85077448  0.34362518     0.11300
C475        C  0.82772316  0.85369007  0.30289984    -0.03100
C476        C  0.80456023  0.83150077  0.28481088    -0.05800
C477        C  0.79110465  0.80565577  0.30547654    -0.16600
C478        C  0.80768112  0.79972890  0.34322474     0.02300
C479        C  0.85883794  0.87384666  0.36497087     0.12300
C480        C  0.84552054  0.87901932  0.27820293     0.62900
H481        H  0.79767700  0.83390150  0.25381759     0.12300
C482        C  0.81179804  0.76834682  0.36144116     0.55000
H483        H  0.83677577  0.82021275  0.39295983     0.08100
C484        C  0.84161783  0.89940226  0.38352979    -0.05700
C485        C  0.86593421  0.92131933  0.40081575    -0.06400
C486        C  0.90646512  0.91784918  0.40112134    -0.16000
C487        C  0.92340704  0.89164380  0.38347191    -0.01600
C488        C  0.89910098  0.87005711  0.36569163    -0.09200
C489        C  0.79782941  0.90302847  0.38588189     0.65100
H490        H  0.85339413  0.94117210  0.41495951     0.10600
C491        C  0.96693037  0.88695035  0.38179196     0.63500
H492        H  0.91135474  0.85001906  0.35171055     0.07900
F493        F  0.84982330  0.76417197  0.37320762    -0.19500
F494        F  0.80360606  0.74517656  0.33522480    -0.15800
F495        F  0.78796814  0.76592445  0.39434149    -0.19300
F496        F  0.88538758  0.87566652  0.27757163    -0.22600
F497        F  0.83642865  0.90714033  0.29395918    -0.24100
F498        F  0.83261820  0.87838190  0.23951164    -0.18100
F499        F  0.97727129  0.86356378  0.35631032    -0.20600
F500        F  0.98055512  0.87987792  0.41903642    -0.21800
F501        F  0.98452025  0.91318525  0.36839119    -0.18900
F502        F  0.78718337  0.92944075  0.40550330    -0.19000
F503        F  0.78201681  0.87868233  0.40610418    -0.22900
F504        F  0.78218129  0.90401018  0.34838608    -0.24500
C505        C  0.88058805  0.17466739  0.39755225    -0.11300
C506        C  0.87038681  0.16896555  0.35816885     0.11300
C507        C  0.88219543  0.14154339  0.33972615    -0.03100
C508        C  0.90296685  0.12012982  0.36202575    -0.05800
C509        C  0.91233726  0.12521645  0.40195634    -0.16600
C510        C  0.90103143  0.15310837  0.42015160     0.02300
C511        C  0.84477367  0.19096790  0.33761563     0.12300
C512        C  0.87259290  0.13487452  0.29669513     0.62900
H513        H  0.91202996  0.09899994  0.34830536     0.12300
C514        C  0.90847896  0.15963805  0.46361759     0.55000
H515        H  0.87127225  0.19591449  0.41078875     0.08100
C516        C  0.80395335  0.18886089  0.34089260    -0.05700
C517        C  0.78103020  0.20712935  0.31629547    -0.06400
C518        C  0.79759084  0.22709204  0.28857668    -0.16000
C519        C  0.83836815  0.23083422  0.28733325    -0.01600
C520        C  0.86142628  0.21276896  0.31240653    -0.09200
C521        C  0.78478033  0.16669184  0.36940027     0.65100
H522        H  0.74975793  0.20479953  0.31693625     0.10600
C523        C  0.85742856  0.25238442  0.25817418     0.63500
H524        H  0.89274771  0.21430248  0.31102186     0.07900
F525        F  0.89499127  0.13576118  0.48638805    -0.19500
F526        F  0.88971371  0.18574506  0.47639085    -0.15800
F527        F  0.94775689  0.16355135  0.46978489    -0.19300
F528        F  0.88890948  0.15684756  0.27264508    -0.22600
F529        F  0.83289493  0.13482724  0.29137269    -0.24100
F530        F  0.88672433  0.10687547  0.28460065    -0.18100
F531        F  0.84464604  0.28170278  0.26506831    -0.20600
F532        F  0.84815834  0.24388070  0.22001766    -0.21800
F533        F  0.89742461  0.25223357  0.26142791    -0.18900
F534        F  0.74473946  0.16812395  0.36758262    -0.19000
F535        F  0.79564374  0.17344095  0.40770745    -0.22900
F536        F  0.79587830  0.13723926  0.36060178    -0.24500
C537        C  0.08974679  0.86093433  0.60181002    -0.11300
C538        C  0.12190675  0.86855897  0.62473331     0.11300
C539        C  0.13385900  0.89920456  0.62743713    -0.03100
C540        C  0.11373267  0.92120855  0.60567402    -0.05800
C541        C  0.08129420  0.91387916  0.58241827    -0.16600
C542        C  0.06810172  0.88309924  0.58169284     0.02300
C543        C  0.14396187  0.84366969  0.64371614     0.12300
C544        C  0.16752118  0.90873519  0.65349491     0.62900
H545        H  0.12366450  0.94450868  0.60660972     0.12300
C546        C  0.03079511  0.87328140  0.56155406     0.55000
H547        H  0.08169546  0.83719809  0.59991319     0.08100
C548        C  0.13116335  0.82905694  0.67860198    -0.05700
C549        C  0.15466673  0.80625546  0.69511323    -0.06400
C550        C  0.19075612  0.79811832  0.67843056    -0.16000
C551        C  0.20342990  0.81320445  0.64304372    -0.01600
C552        C  0.17874265  0.83475794  0.62580297    -0.09200
C553        C  0.09306014  0.83774948  0.69843758     0.65100
H554        H  0.14483288  0.79459729  0.72147450     0.10600
C555        C  0.24252397  0.80822539  0.62258413     0.63500
H556        H  0.18702475  0.84567312  0.59827648     0.07900
F557        F  0.00043504  0.89123077  0.57480110    -0.19500
F558        F  0.02132086  0.84341984  0.57008871    -0.15800
F559        F  0.03454363  0.87563226  0.52089720    -0.19300
F560        F  0.20166629  0.89596937  0.63973183    -0.22600
F561        F  0.16087569  0.89924582  0.69191209    -0.24100
F562        F  0.17229008  0.93997343  0.65412816    -0.18100
F563        F  0.23996478  0.78412340  0.59646483    -0.20600
F564        F  0.27165635  0.80276684  0.64927301    -0.21800
F565        F  0.25360827  0.83368767  0.60124889    -0.18900
F566        F  0.08716418  0.82201663  0.73338728    -0.19000
F567        F  0.06250611  0.83130197  0.67356833    -0.22900
F568        F  0.09286532  0.86846198  0.70711487    -0.24500
C569        C  0.66293536  0.19020060  0.12468722    -0.11300
C570        C  0.65725934  0.16198346  0.14268638     0.11300
C571        C  0.67217244  0.15689318  0.18090128    -0.03100
C572        C  0.69194615  0.18065232  0.19990755    -0.05800
C573        C  0.69886543  0.20918963  0.18188514    -0.16600
C574        C  0.68075397  0.21466064  0.14445724     0.02300
C575        C  0.63303817  0.13904179  0.12186332     0.12300
C576        C  0.66711756  0.12653303  0.20174800     0.62900
H577        H  0.70141144  0.17702158  0.22991135     0.12300
C578        C  0.67600593  0.24557927  0.12498480     0.55000
H579        H  0.65114226  0.19358573  0.09536101     0.08100
C580        C  0.59216085  0.14178171  0.11957176    -0.05700
C581        C  0.57110802  0.11916881  0.09952085    -0.06400
C582        C  0.58932940  0.09360807  0.08271553    -0.16000
C583        C  0.63046874  0.09080676  0.08542377    -0.01600
C584        C  0.65149803  0.11406083  0.10429807    -0.09200
C585        C  0.57075809  0.16841125  0.13835075     0.65100
H586        H  0.53989135  0.12110573  0.09727389     0.10600
C587        C  0.65265616  0.06387369  0.06830093     0.63500
H588        H  0.68279920  0.11282857  0.10600606     0.07900
F589        F  0.64065412  0.24725413  0.10586296    -0.19500
F590        F  0.70503954  0.24976340  0.09710031    -0.15800
F591        F  0.67614957  0.26906023  0.15198021    -0.19300
F592        F  0.68710100  0.10416469  0.18129484    -0.22600
F593        F  0.62827001  0.11892019  0.20361886    -0.24100
F594        F  0.68117784  0.12720071  0.24002940    -0.18100
F595        F  0.69242075  0.06775574  0.07090420    -0.20600
F596        F  0.64368010  0.06012092  0.02879092    -0.21800
F597        F  0.64332400  0.03780440  0.08899115    -0.18900
F598        F  0.53095643  0.16440672  0.13754403    -0.12600
F599        F  0.57940407  0.19479954  0.11805596    -0.22900
F600        F  0.58156854  0.17167776  0.17746272    -0.24500
C601        C  0.36231164  0.20092271  0.17198934    -0.11300
C602        C  0.34303607  0.17990708  0.14776833     0.11300
C603        C  0.30242626  0.18221016  0.14298168    -0.03100
C604        C  0.28251655  0.20596804  0.16215182    -0.05800
C605        C  0.30122406  0.22621987  0.18789966    -0.16600
C606        C  0.34206350  0.22428609  0.19215394     0.02300
C607        C  0.36560284  0.15482530  0.12895542     0.12300
C608        C  0.27998256  0.15914303  0.11864451     0.62900
H609        H  0.25154588  0.20838272  0.15813958     0.12300
C610        C  0.36443253  0.24746423  0.21617045     0.55000
H611        H  0.39340150  0.19865258  0.17523741     0.08100
C612        C  0.38396366  0.15800683  0.09168043    -0.05700
C613        C  0.40194798  0.13237541  0.07445758    -0.06400
C614        C  0.40254923  0.10375168  0.09334838    -0.16000
C615        C  0.38475881  0.10105196  0.13143649    -0.01600
C616        C  0.36696909  0.12684082  0.14852146    -0.09200
C617        C  0.38491902  0.18845979  0.07048496     0.65100
H618        H  0.41551583  0.13461342  0.04562991     0.10600
C619        C  0.38408802  0.07140466  0.15441002     0.63500
H620        H  0.35280386  0.12524495  0.17715579     0.07900
F621        F  0.40409370  0.24442330  0.21075908    -0.19500
F622        F  0.35641229  0.24386898  0.25597285    -0.15800
F623        F  0.35417321  0.27646820  0.20460050    -0.19300
F624        F  0.28364695  0.13063580  0.13529179    -0.22600
F625        F  0.29406354  0.15824009  0.08028545    -0.24100
F626        F  0.24086734  0.16610540  0.11714203    -0.18100
F627        F  0.36943490  0.07520406  0.19235752    -0.20600
F628        F  0.42130080  0.05998857  0.15770535    -0.21800
F629        F  0.36073990  0.05058777  0.13525887    -0.18900
F630        F  0.40338348  0.18649092  0.03404130    -0.19000
F631        F  0.40462648  0.20940637  0.09327434    -0.22900
F632        F  0.34769430  0.19896968  0.06426732    -0.24500
C633        C  0.34158374  0.82955870  0.20510141    -0.11300
C634        C  0.33061464  0.83136634  0.16534474     0.11300
C635        C  0.29921014  0.81354286  0.15172371    -0.03100
C636        C  0.28015217  0.79406635  0.17858470    -0.05800
C637        C  0.29100469  0.79235150  0.21848386    -0.16600
C638        C  0.32108925  0.81162058  0.23250690     0.02300
C639        C  0.35111154  0.85362289  0.13944568     0.12300
C640        C  0.28581641  0.81519900  0.10907698     0.62900
H641        H  0.25689786  0.77959018  0.16839286     0.12300
C642        C  0.33171019  0.81564815  0.27584661     0.55000
H643        H  0.36541076  0.84355201  0.21526118     0.08100
C644        C  0.34379216  0.88513671  0.14226039    -0.05700
C645        C  0.36523821  0.90508931  0.11816660    -0.06400
C646        C  0.39297332  0.89479781  0.09020036    -0.16000
C647        C  0.39816571  0.86268113  0.08565060    -0.01600
C648        C  0.37814692  0.84292418  0.11159911    -0.09200
C649        C  0.31350940  0.89777623  0.17082770     0.65100
H650        H  0.36023818  0.92923298  0.12141481     0.10600
C651        C  0.42357625  0.84865749  0.05344025     0.63500
H652        H  0.38307561  0.81864334  0.11014751     0.07900
F653        F  0.33380711  0.84634066  0.28462450    -0.19500
F654        F  0.36759816  0.80265166  0.28250427    -0.15800
F655        F  0.30496831  0.80322195  0.30173233    -0.19300
F656        F  0.31497190  0.80511563  0.08403790    -0.22600
F657        F  0.27648474  0.84484435  0.09954821    -0.24100
F658        F  0.25340010  0.79737945  0.10265908    -0.18100
F659        F  0.42188082  0.81720669  0.05356669    -0.20600
F660        F  0.46179731  0.85684726  0.05888509    -0.21800
F661        F  0.41119979  0.85828960  0.01668090    -0.18900
F662        F  0.30634518  0.92828594  0.16412936    -0.19000
F663        F  0.32621268  0.89461942  0.20928920    -0.22900
F664        F  0.27883736  0.88239458  0.16658027    -0.24500
C665        C  0.67628259  0.84103828  0.83259858    -0.11300
C666        C  0.63784516  0.83112428  0.83435787     0.11300
C667        C  0.62639111  0.80561200  0.81171141    -0.03100
C668        C  0.65440368  0.79067874  0.78800838    -0.05800
C669        C  0.69282474  0.80113863  0.78537044    -0.16600
C670        C  0.70435643  0.82642254  0.80912452     0.02300
C671        C  0.60997848  0.85033621  0.85698919     0.12300
C672        C  0.58448152  0.79514355  0.81124044     0.62900
H673        H  0.64598487  0.77161750  0.76964811     0.12300
C674        C  0.74521647  0.83941152  0.81208594     0.55000
H675        H  0.68441385  0.86092739  0.84966478     0.08100
C676        C  0.60698161  0.84948282  0.89883098    -0.05700
C677        C  0.58341943  0.87121543  0.91819522    -0.06400
C678        C  0.56430741  0.89421434  0.89709232    -0.16000
C679        C  0.56701306  0.89468657  0.85515235    -0.01600
C680        C  0.58981177  0.87259912  0.83589950    -0.09200
C681        C  0.62950124  0.82636810  0.92287621     0.65100
H682        H  0.58122158  0.87132074  0.95019577     0.10600
C683        C  0.54609888  0.91837662  0.83058379     0.63500
H684        H  0.59339663  0.87323860  0.80403158     0.07900
F685        F  0.75564820  0.84091204  0.85153218    -0.19500
F686        F  0.74549953  0.86854098  0.79680955    -0.15800
F687        F  0.77331971  0.82256325  0.79282705    -0.19300
F688        F  0.56154687  0.81737793  0.79449374    -0.22600
F689        F  0.57158672  0.78965945  0.84937067    -0.24100
F690        F  0.57999314  0.76869391  0.78950133    -0.18100
F691        F  0.56338922  0.94642626  0.83558010    -0.20600
F692        F  0.50756702  0.92001981  0.84206915    -0.21800
F693        F  0.54730563  0.91140169  0.79061312    -0.18900
F694        F  0.62052472  0.82821482  0.96282087    -0.19000
F695        F  0.66886509  0.83132839  0.91843793    -0.22900
F696        F  0.62094796  0.79729961  0.91013398    -0.24500
C697        C  0.31750947  0.16578247  0.81532671    -0.11300
C698        C  0.33878749  0.17563579  0.84793402     0.11300
C699        C  0.33734550  0.20653869  0.85921456    -0.03100
C700        C  0.31282675  0.22635940  0.83823855    -0.05800
C701        C  0.28946780  0.21633425  0.80663618    -0.16600
C702        C  0.29201807  0.18515263  0.79490474     0.02300
C703        C  0.36003980  0.15227765  0.87109277     0.12300
C704        C  0.36129643  0.21833530  0.89352998     0.62900
H705        H  0.31135411  0.25004083  0.84684684     0.12300
C706        C  0.26625478  0.17093899  0.76365263     0.55000
H707        H  0.31998466  0.14206246  0.80705131     0.08100
C708        C  0.34029468  0.13279234  0.89783507    -0.05700
C709        C  0.36142898  0.11010544  0.91738767    -0.06400
C710        C  0.40134172  0.10639291  0.91120432    -0.16000
C711        C  0.42124159  0.12576589  0.88446700    -0.01600
C712        C  0.40001827  0.14843456  0.86457855    -0.09200
C713        C  0.29689474  0.13545868  0.90515022     0.65100
H714        H  0.34680865  0.09472771  0.93755138     0.10600
C715        C  0.46434469  0.12199005  0.87634085     0.63500
H716        H  0.41436713  0.16321665  0.84350117     0.07900
F717        F  0.26810077  0.13949712  0.76416121    -0.19500
F718        F  0.27746419  0.18005108  0.72629165    -0.15800
F719        F  0.22825656  0.17890304  0.77075594    -0.19300
F720        F  0.40029321  0.21440105  0.88524114    -0.22600
F721        F  0.35201219  0.20265739  0.92772903    -0.24100
F722        F  0.35486661  0.24895131  0.90047802    -0.18100
F723        F  0.47718971  0.14111956  0.84653218    -0.20600
F724        F  0.47220328  0.09239571  0.86488648    -0.21800
F725        F  0.48490700  0.12869124  0.91019391    -0.18900
F726        F  0.28464694  0.11687288  0.93579579    -0.19000
F727        F  0.27710391  0.12707463  0.87143516    -0.22900
F728        F  0.28726062  0.16503085  0.91500379    -0.24500
C729        C  0.63724919  0.84080353  0.19031632    -0.11300
C730        C  0.63731706  0.83012230  0.15134063     0.11300
C731        C  0.65870190  0.80371936  0.14139578    -0.03100
C732        C  0.67855391  0.78817751  0.17166017    -0.05800
C733        C  0.67859406  0.79894410  0.21090010    -0.16600
C734        C  0.65669166  0.82547719  0.22061189     0.02300
C735        C  0.61572718  0.84823607  0.12171549     0.12300
C736        C  0.66182310  0.79298220  0.09876320     0.62900
H737        H  0.69612206  0.76849275  0.16441629     0.12300
C738        C  0.65281062  0.83922514  0.26185279     0.55000
H739        H  0.62140917  0.86149114  0.19720644     0.08100
C740        C  0.57487021  0.84657732  0.11847400    -0.05700
C741        C  0.55572389  0.86746552  0.09383541    -0.06400
C742        C  0.57604946  0.89038147  0.07369030    -0.16000
C743        C  0.61718818  0.89132725  0.07604426    -0.01600
C744        C  0.63625512  0.87014184  0.10013847    -0.09200
C745        C  0.55154367  0.82379584  0.14248953     0.65100
H746        H  0.52443529  0.86745492  0.09248344     0.10600
C747        C  0.64108739  0.91574290  0.05561457     0.63500
H748        H  0.66736534  0.87156483  0.10400575     0.07900
F749        F  0.61421626  0.84567874  0.26967802    -0.19500
F750        F  0.67365154  0.86604095  0.26331792    -0.15800
F751        F  0.66552568  0.82035404  0.29161778    -0.19300
F752        F  0.67998382  0.81497575  0.07611354    -0.22600
F753        F  0.62529718  0.78769143  0.08368340    -0.24100
F754        F  0.68310396  0.76640746  0.09543956    -0.18100
F755        F  0.63894070  0.94229368  0.07745418    -0.20600
F756        F  0.62761317  0.92087139  0.01771512    -0.21800
F757        F  0.67973138  0.90748053  0.05254504    -0.18900
F758        F  0.51262553  0.82437511  0.13277470    -0.19000
F759        F  0.55465434  0.83036060  0.18236375    -0.22900
F760        F  0.56532528  0.79475000  0.13561476    -0.24500
C761        C  0.30854409  0.84926991  0.79875618    -0.11300
C762        C  0.31164725  0.84037158  0.83836045     0.11300
C763        C  0.29502169  0.81259396  0.85088312    -0.03100
C764        C  0.27738095  0.79375701  0.82252174    -0.05800
C765        C  0.27579438  0.80200525  0.78253292    -0.16600
C766        C  0.29162275  0.83020494  0.77029640     0.02300
C767        C  0.33450971  0.85999754  0.86531066     0.12300
C768        C  0.29619995  0.80290628  0.89390442     0.62900
H769        H  0.26583618  0.77190440  0.83113225     0.12300
C770        C  0.29238718  0.83948945  0.72723516     0.55000
H771        H  0.32125592  0.87076064  0.79003443     0.08100
C772        C  0.37555077  0.85882439  0.86583893    -0.05700
C773        C  0.39564859  0.87908607  0.89048517    -0.06400
C774        C  0.37621735  0.90130120  0.91293173    -0.16000
C775        C  0.33500181  0.90222017  0.91275891    -0.01600
C776        C  0.31484395  0.88128151  0.88895339    -0.09200
C777        C  0.39814110  0.83722396  0.83912915     0.65100
H778        H  0.42705785  0.87888675  0.89067211     0.10600
C779        C  0.31217840  0.92527707  0.93698865     0.63500
H780        H  0.28348336  0.88201057  0.88754269     0.07900
F781        F  0.31571675  0.81952376  0.70626975    -0.19500
F782        F  0.30713208  0.86847150  0.72199268    -0.15800
F783        F  0.25519267  0.83905817  0.71238073    -0.19300
F784        F  0.27548642  0.82344897  0.91673427    -0.22600
F785        F  0.33409165  0.80198786  0.90690624    -0.24100
F786        F  0.28012323  0.77439609  0.89940223    -0.18100
F787        F  0.31514760  0.95355937  0.91954965    -0.20600
F788        F  0.32631761  0.92665519  0.97516025    -0.21800
F789        F  0.27323110  0.91775998  0.93931716    -0.18900
F790        F  0.43755192  0.83820350  0.84655350    -0.19000
F791        F  0.39259516  0.84512828  0.80000939    -0.22900
F792        F  0.38572647  0.80770089  0.84485911    -0.24500
C793        C  0.86110769  0.19875091  0.68435563    -0.11300
C794        C  0.84345241  0.19006436  0.64886167     0.11300
C795        C  0.80493243  0.19961752  0.64118266    -0.03100
C796        C  0.78479165  0.21640301  0.67043765    -0.05800
C797        C  0.80195120  0.22379211  0.70675349    -0.16600
C798        C  0.84113956  0.21580276  0.71328942     0.02300
C799        C  0.86392724  0.16724006  0.62355202     0.12300
C800        C  0.78475526  0.19124460  0.60287015     0.62900
H801        H  0.75465107  0.22238440  0.66611434     0.12300
C802        C  0.86089054  0.22330418  0.75185827     0.55000
H803        H  0.89009187  0.19049606  0.69023309     0.08100
C804        C  0.89657474  0.17426630  0.59971719    -0.05700
C805        C  0.91556225  0.15055359  0.57914491    -0.06400
C806        C  0.90304613  0.12006880  0.58136960    -0.16000
C807        C  0.86906301  0.11348090  0.60445295    -0.01600
C808        C  0.85123807  0.13714391  0.62595395    -0.09200
C809        C  0.91106449  0.20668549  0.59564153     0.65100
H810        H  0.94065957  0.15587141  0.56111358     0.10600
C811        C  0.85033388  0.08216951  0.60635792     0.63500
H812        H  0.82685113  0.13234937  0.64532621     0.07900
F813        F  0.85800532  0.25411705  0.75944056    -0.19500
F814        F  0.89983445  0.21562396  0.75116883    -0.15800
F815        F  0.84322639  0.20718235  0.78187562    -0.19300
F816        F  0.77796715  0.16032298  0.60149141    -0.22600
F817        F  0.80770897  0.19937909  0.57090718    -0.24100
F818        F  0.74945484  0.20595701  0.59931524    -0.18100
F819        F  0.81524541  0.08259903  0.62657007    -0.20600
F820        F  0.87433087  0.06202794  0.62582629    -0.21800
F821        F  0.84294479  0.07189336  0.56845075    -0.18900
F822        F  0.94272635  0.20861611  0.57034010    -0.19000
F823        F  0.92218987  0.21788044  0.63204584    -0.22900
F824        F  0.88187795  0.22479067  0.58071633    -0.24500
C825        C  0.68681131  0.15867379  0.84414712    -0.11300
C826        C  0.64749790  0.16552401  0.84793334     0.11300
C827        C  0.63383705  0.19445601  0.83696104    -0.03100
C828        C  0.66020499  0.21518068  0.82020073    -0.05800
C829        C  0.69970419  0.20783129  0.81321401    -0.16600
C830        C  0.71363310  0.17963028  0.82887723     0.02300
C831        C  0.62221072  0.14279269  0.86725082     0.12300
C832        C  0.59161956  0.20342729  0.84329855     0.62900
H833        H  0.64979767  0.23772694  0.81388381     0.12300
C834        C  0.75580567  0.16988742  0.83175054     0.55000
H835        H  0.69690075  0.13680256  0.85472685     0.08100
C836        C  0.60755051  0.11734317  0.84670190    -0.05700
C837        C  0.58456251  0.09637032  0.86753894    -0.06400
C838        C  0.57639637  0.09991834  0.90812264    -0.16000
C839        C  0.59182807  0.12540253  0.92875757    -0.01600
C840        C  0.61463060  0.14632192  0.90768788    -0.09200
C841        C  0.61653895  0.11227638  0.80312718     0.65100
H842        H  0.57286536  0.07683397  0.85218927     0.10600
C843        C  0.58614817  0.13007284  0.97299385     0.63500
H844        H  0.62717024  0.16570759  0.92267891     0.07900
F845        F  0.76346864  0.14772740  0.80366820    -0.19500
F846        F  0.76260116  0.15780288  0.86887217    -0.15800
F847        F  0.78150286  0.19339500  0.82699607    -0.19300
F848        F  0.58358018  0.20537620  0.88335880    -0.22600
F849        F  0.56747545  0.18197968  0.82649928    -0.24100
F850        F  0.58320923  0.23126720  0.82638635    -0.18100
F851        F  0.60800483  0.15402310  0.98732047    -0.20600
F852        F  0.59753246  0.10418546  0.99273898    -0.21800
F853        F  0.54766463  0.13636481  0.98138351    -0.18900
F854        F  0.59745657  0.08709246  0.78828518    -0.19000
F855        F  0.65591716  0.10776952  0.79788465    -0.22900
F856        F  0.60518455  0.13733013  0.78148176    -0.24500
C857        C  0.19104840  0.34979823  0.13670708    -0.11300
C858        C  0.15257424  0.35438709  0.14856139     0.11300
C859        C  0.13765007  0.33769775  0.18091400    -0.03100
C860        C  0.16201826  0.31682156  0.20019146    -0.05800
C861        C  0.20091913  0.31151410  0.18833807    -0.16600
C862        C  0.21639524  0.33048676  0.15748411     0.02300
C863        C  0.12916185  0.37791776  0.12768946     0.12300
C864        C  0.09600218  0.34183388  0.19511880     0.62900
H865        H  0.15054036  0.30547970  0.22587797     0.12300
C866        C  0.25891166  0.33244064  0.14492459     0.55000
H867        H  0.20193033  0.36271748  0.11169820     0.08100
C868        C  0.13474538  0.40942227  0.13395966    -0.05700
C869        C  0.11086376  0.43020673  0.11383297    -0.06400
C870        C  0.08099496  0.42078314  0.08817435    -0.16000
C871        C  0.07531675  0.38881814  0.08250380    -0.01600
C872        C  0.10023057  0.36823891  0.10178567    -0.09200
C873        C  0.16558400  0.42111206  0.16212769     0.65100
H874        H  0.11562983  0.45426291  0.11825116     0.10600
C875        C  0.04299605  0.37570492  0.05719102     0.63500
H876        H  0.09712051  0.34401390  0.09719318     0.07900
F877        F  0.26853947  0.36236543  0.13687813    -0.19500
F878        F  0.26457112  0.31554074  0.11082848    -0.15800
F879        F  0.28444413  0.32281421  0.17344707    -0.19300
F880        F  0.07088714  0.33051212  0.16702847    -0.22600
F881        F  0.08811223  0.37229435  0.20132142    -0.24100
F882        F  0.08887169  0.32668041  0.23029607    -0.18100
F883        F  0.04817928  0.38398934  0.01817206    -0.20600
F884        F  0.00744101  0.38606214  0.07066600    -0.21800
F885        F  0.04208208  0.34427145  0.05837906    -0.18900
F886        F  0.16315653  0.45226155  0.16749201    -0.19000
F887        F  0.20206997  0.41455966  0.14722036    -0.22900
F888        F  0.16126314  0.40754895  0.19877594    -0.24500
C889        C  0.17638048  0.68305012  0.15574555    -0.11300
C890        C  0.13701971  0.69058871  0.15927004     0.11300
C891        C  0.12562694  0.71413996  0.18563279    -0.03100
C892        C  0.15408832  0.72788367  0.20963655    -0.05800
C893        C  0.19322100  0.71902746  0.20753759    -0.16600
C894        C  0.20496152  0.69782699  0.17810832     0.02300
C895        C  0.10872232  0.67146947  0.13718410     0.12300
C896        C  0.08365377  0.72438843  0.18873607     0.62900
H897        H  0.14573449  0.74490670  0.23124970     0.12300
C898        C  0.24742464  0.69197939  0.16848429     0.55000
H899        H  0.18462687  0.66500261  0.13551175     0.08100
C900        C  0.10479628  0.67281906  0.09544071    -0.05700
C901        C  0.08172366  0.65087985  0.07634208    -0.06400
C902        C  0.06361335  0.62732636  0.09741424    -0.16000
C903        C  0.06613309  0.62679585  0.13933726    -0.01600
C904        C  0.08886763  0.64889057  0.15841805    -0.09200
C905        C  0.12561584  0.69676391  0.07096444     0.65100
H906        H  0.07929711  0.65099717  0.04439727     0.10600
C907        C  0.04511779  0.60303973  0.16400873     0.63500
H908        H  0.09276010  0.64789508  0.19017186     0.07900
F909        F  0.26438249  0.67448945  0.19745960    -0.19500
F910        F  0.26691158  0.71932417  0.16541395    -0.15800
F911        F  0.25177483  0.67681015  0.13277220    -0.19300
F912        F  0.06114432  0.70143639  0.20462710    -0.22600
F913        F  0.06985389  0.73163267  0.15161668    -0.24100
F914        F  0.07964030  0.74982907  0.21261410    -0.18100
F915        F  0.04582647  0.61003335  0.20396940    -0.20600
F916        F  0.06267795  0.57505968  0.15898698    -0.21800
F917        F  0.00670546  0.60123741  0.15267612    -0.18900
F918        F  0.11482273  0.69568426  0.03158967    -0.19000
F919        F  0.16521425  0.69225874  0.07256547    -0.22900
F920        F  0.11691281  0.72539314  0.08538137    -0.24500
C921        C  0.82273658  0.64932350  0.09858619    -0.11300
C922        C  0.83774435  0.66428740  0.13171633     0.11300
C923        C  0.87622748  0.65802981  0.14400672    -0.03100
C924        C  0.89892713  0.63751763  0.12158588    -0.05800
C925        C  0.88352597  0.62204705  0.08898081    -0.16600
C926        C  0.84481857  0.62774525  0.07742162     0.02300
C927        C  0.81147179  0.68435882  0.15512683     0.12300
C928        C  0.89263441  0.67202887  0.18149226     0.62900
H929        H  0.92836247  0.63236165  0.13034440     0.12300
C930        C  0.82677019  0.61043374  0.04343941     0.55000
H931        H  0.79297332  0.65382864  0.09042383     0.08100
C932        C  0.80498408  0.71521965  0.14534149    -0.05700
C933        C  0.78404953  0.73359177  0.17221485    -0.06400
C934        C  0.76906150  0.72182604  0.20775220    -0.16000
C935        C  0.77328596  0.69047370  0.21599113    -0.01600
C936        C  0.79399293  0.67213826  0.18905831    -0.09200
C937        C  0.81989542  0.72855240  0.10675801     0.65100
H938        H  0.78008880  0.75757553  0.16627419     0.10600
C939        C  0.75790359  0.67674799  0.25398013     0.63500
H940        H  0.79844701  0.64824721  0.19521619     0.07900
F941        F  0.78966325  0.62056281  0.03532151    -0.19500
F942        F  0.82461267  0.57995205  0.05294785    -0.15800
F943        F  0.84923731  0.61395511  0.00972686    -0.19300
F944        F  0.87237172  0.66140782  0.21408974    -0.22600
F945        F  0.88953278  0.70333465  0.18009692    -0.24100
F946        F  0.93134314  0.66470396  0.18648846    -0.18100
F947        F  0.71831405  0.68116402  0.25639512    -0.20600
F948        F  0.77577720  0.69040321  0.28585224    -0.21800
F949        F  0.76490258  0.64579770  0.25595853    -0.18900
F950        F  0.81343353  0.75957736  0.10474441    -0.19000
F951        F  0.80096008  0.71494902  0.07546006    -0.22900
F952        F  0.85932418  0.72355726  0.10284078    -0.24500
C953        C  0.13085244  0.65054300  0.88228748    -0.11300
C954        C  0.11052016  0.67574648  0.86796710     0.11300
C955        C  0.07063767  0.67890172  0.87772315    -0.03100
C956        C  0.05227280  0.65607358  0.90075869    -0.05800
C957        C  0.07239661  0.63008464  0.91386566    -0.16600
C958        C  0.11291314  0.62800474  0.90565172     0.02300
C959        C  0.13169082  0.69688151  0.84048860     0.12300
C960        C  0.04739951  0.70583367  0.86289069     0.62900
H961        H  0.02154690  0.65777404  0.90725135     0.12300
C962        C  0.13772683  0.60226625  0.92142800     0.55000
H963        H  0.16116115  0.64828774  0.87413564     0.08100
C964        C  0.16021174  0.71773394  0.85377529    -0.05700
C965        C  0.18339297  0.73314958  0.82547828    -0.06400
C966        C  0.17895181  0.72835137  0.78463872    -0.16000
C967        C  0.14843853  0.70927648  0.77146852    -0.01600
C968        C  0.12578910  0.69352605  0.79966893    -0.09200
C969        C  0.16638715  0.72337597  0.89765865     0.65100
H970        H  0.20634551  0.74802988  0.83515772     0.10600
C971        C  0.13941451  0.70577738  0.72775149     0.63500
H972        H  0.10404667  0.67747750  0.78994536     0.07900
F973        F  0.17691311  0.60865652  0.91805480    -0.19500
F974        F  0.13057363  0.57604789  0.90014364    -0.15800
F975        F  0.12960149  0.59750903  0.96111077    -0.19300
F976        F  0.04314194  0.70377270  0.82234051    -0.22600
F977        F  0.06619735  0.73268053  0.87186452    -0.24100
F978        F  0.01084048  0.70694683  0.87997425    -0.18100
F979        F  0.16856465  0.68982565  0.70865659    -0.20600
F980        F  0.13584917  0.73414375  0.71066448    -0.21800
F981        F  0.10498748  0.69030714  0.72191968    -0.18900
F982        F  0.19348492  0.74598969  0.90421093    -0.19000
F983        F  0.17933954  0.69718519  0.91578168    -0.22900
F984        F  0.13188627  0.73229536  0.91523499    -0.24500
C985        C  0.80129179  0.70717885  0.85491464    -0.11300
C986        C  0.83056447  0.68866719  0.83921879     0.11300
C987        C  0.83988278  0.69020983  0.79853107    -0.03100
C988        C  0.82092680  0.71191881  0.77524149    -0.05800
C989        C  0.79113774  0.73056357  0.79049679    -0.16600
C990        C  0.78112243  0.72824587  0.83145495     0.02300
C991        C  0.84957028  0.66679064  0.86603298     0.12300
C992        C  0.86843849  0.66817904  0.77944331     0.62900
H993        H  0.82853231  0.71383195  0.74423969     0.12300
C994        C  0.75172217  0.74885275  0.85179220     0.55000
H995        H  0.79444985  0.70484243  0.88609799     0.08100
C996        C  0.88364326  0.67407926  0.88694915    -0.05700
C997        C  0.90160548  0.65120154  0.90928345    -0.06400
C998        C  0.88520773  0.62205998  0.91326415    -0.16000
C999        C  0.84804963  0.61643119  0.89654237    -0.01600
C1000       C  0.83154358  0.63873209  0.87216595    -0.09200
C1001       C  0.90032388  0.70602001  0.88646987     0.65100
H1002       H  0.92908434  0.65591518  0.92329614     0.10600
C1003       C  0.82512153  0.58756495  0.90439407     0.63500
H1004       H  0.80434356  0.63436244  0.85734090     0.07900
F1005       F  0.75224450  0.74568134  0.89256107    -0.19500
F1006       F  0.71457776  0.74233531  0.83971299    -0.15800
F1007       F  0.76044786  0.77861624  0.84344108    -0.19300
F1008       F  0.85593459  0.63869161  0.78537695    -0.22600
F1009       F  0.90475009  0.67150439  0.79581108    -0.24100
F1010       F  0.87183056  0.67281868  0.73904196    -0.18100
F1011       F  0.78636466  0.59108834  0.89491682    -0.20600
F1012       F  0.82673162  0.57999835  0.94406270    -0.21800
F1013       F  0.83995912  0.56408716  0.88167034    -0.18900
F1014       F  0.93200001  0.70864093  0.91116068    -0.19000
F1015       F  0.87247405  0.72646015  0.89934292    -0.22900
F1016       F  0.91195155  0.71383533  0.84866169    -0.24500
C1017       C  0.18688622  0.35192517  0.85487152    -0.11300
C1018       C  0.14649555  0.34942974  0.85548106     0.11300
C1019       C  0.12887908  0.32354431  0.83877172    -0.03100
C1020       C  0.15266432  0.30108678  0.82141849    -0.05800
C1021       C  0.19335254  0.30448029  0.81726428    -0.16600
C1022       C  0.21093250  0.32960788  0.83748283     0.02300
C1023       C  0.12357792  0.37405543  0.87487065     0.12300
C1024       C  0.08497482  0.32022633  0.83782319     0.62900
H1025       H  0.13886550  0.28068008  0.81109197     0.12300
C1026       C  0.25425932  0.33506204  0.84246835     0.55000
H1027       H  0.19992414  0.37164302  0.86875423     0.08100
C1028       C  0.11630754  0.37432438  0.91610446    -0.05700
C1029       C  0.09441651  0.39836835  0.93239504    -0.06400
C1030       C  0.08085329  0.42266278  0.90929823    -0.16000
C1031       C  0.09001372  0.42306784  0.86814372    -0.01600
C1032       C  0.11058350  0.39829907  0.85159696    -0.09200
C1033       C  0.13330474  0.35017946  0.94306708     0.65100
H1034       H  0.08931749  0.39915405  0.96391194     0.10600
C1035       C  0.07891461  0.44947931  0.84167394     0.63500
H1036       H  0.11757700  0.39790859  0.82030037     0.07900
F1037       F  0.26185535  0.34074100  0.88196909    -0.19500
F1038       F  0.26497688  0.36033690  0.82071923    -0.15800
F1039       F  0.27743446  0.31099974  0.83131102    -0.19300
F1040       F  0.06942999  0.34294838  0.81460682    -0.22600
F1041       F  0.06949097  0.32250150  0.87553596    -0.24100
F1042       F  0.07372571  0.29251065  0.82220073    -0.18100
F1043       F  0.09935592  0.47510020  0.85270288    -0.20600
F1044       F  0.03961928  0.45518473  0.84478602    -0.21800
F1045       F  0.08741938  0.44366434  0.80226223    -0.18900
F1046       F  0.11930431  0.35275511  0.98143085    -0.19000
F1047       F  0.17317250  0.35327502  0.94390626    -0.22900
F1048       F  0.12432862  0.32139216  0.92956095    -0.24500
C1049       C  0.89211476  0.37881555  0.14250905    -0.11300
C1050       C  0.85561722  0.37019212  0.12829785     0.11300
C1051       C  0.83959978  0.38570276  0.09555157    -0.03100
C1052       C  0.86190713  0.40826643  0.07662336    -0.05800
C1053       C  0.89874174  0.41650084  0.09038200    -0.16600
C1054       C  0.91391210  0.40206281  0.12447140     0.02300
C1055       C  0.83373091  0.34622751  0.14995935     0.12300
C1056       C  0.79863923  0.37919238  0.08160030     0.62900
H1057       H  0.85038475  0.42021812  0.05128277     0.12300
C1058       C  0.95194792  0.41062232  0.14398590     0.55000
H1059       H  0.90344496  0.36753891  0.16849657     0.08100
C1060       C  0.83931443  0.31489191  0.14241655    -0.05700
C1061       C  0.81620388  0.29378472  0.16302937    -0.06400
C1062       C  0.78809030  0.30284694  0.19106062    -0.16000
C1063       C  0.78349458  0.33435712  0.19947767    -0.01600
C1064       C  0.80688085  0.35540342  0.17891962    -0.09200
C1065       C  0.86897794  0.30376455  0.11222585     0.65100
H1066       H  0.81943363  0.26977365  0.15679511     0.10600
C1067       C  0.75349180  0.34633915  0.22870873     0.63500
H1068       H  0.80406193  0.37950485  0.18487451     0.07900
F1069       F  0.97589391  0.38541675  0.14502236    -0.19500
F1070       F  0.94457709  0.41994215  0.18243970    -0.15800
F1071       F  0.97154823  0.43375727  0.12485357    -0.19300
F1072       F  0.77242082  0.38653697  0.11125952    -0.22600
F1073       F  0.79472401  0.34878049  0.07222578    -0.24100
F1074       F  0.78928087  0.39600536  0.04842169    -0.18100
F1075       F  0.76531454  0.34062619  0.26692455    -0.20600
F1076       F  0.71804950  0.33281682  0.22210685    -0.21800
F1077       F  0.74834370  0.37742357  0.22509029    -0.18900
F1078       F  0.87115135  0.27234298  0.11121640    -0.19000
F1079       F  0.90533217  0.31472776  0.12152234    -0.22900
F1080       F  0.85903521  0.31375894  0.07491397    -0.24500
C1081       C  0.89950247  0.37441929  0.86238428    -0.11300
C1082       C  0.86030318  0.36904901  0.87134693     0.11300
C1083       C  0.84134226  0.38693325  0.90057987    -0.03100
C1084       C  0.86197959  0.41073488  0.91869177    -0.05800
C1085       C  0.90115348  0.41604716  0.90977323    -0.16600
C1086       C  0.92044425  0.39761778  0.88145537     0.02300
C1087       C  0.84007572  0.34378749  0.85071213     0.12300
C1088       C  0.79992550  0.38020440  0.91341155     0.62900
H1089       H  0.84799531  0.42493837  0.94080682     0.12300
C1090       C  0.96277015  0.40293541  0.87119613     0.55000
H1091       H  0.91361748  0.36008192  0.84051689     0.08100
C1092       C  0.82166466  0.34776984  0.81392425    -0.05700
C1093       C  0.80064014  0.32332315  0.79775132    -0.06400
C1094       C  0.79863389  0.29459978  0.81622836    -0.16000
C1095       C  0.81985080  0.29032301  0.85210273    -0.01600
C1096       C  0.83944477  0.31529192  0.86879468    -0.09200
C1097       C  0.82499781  0.37759948  0.79158763     0.65100
H1098       H  0.78523542  0.32684253  0.77041310     0.10600
C1099       C  0.82415563  0.25986719  0.87272609     0.63500
H1100       H  0.85450289  0.31284134  0.89664318     0.07900
F1101       F  0.97528021  0.38448269  0.84042839    -0.19500
F1102       F  0.98544976  0.39691077  0.90382843    -0.15800
F1103       F  0.96794458  0.43284992  0.85993546    -0.19300
F1104       F  0.79821311  0.35163684  0.93027069    -0.22600
F1105       F  0.77547472  0.38106882  0.88120778    -0.24100
F1106       F  0.78647723  0.40102152  0.94106399    -0.18100
F1107       F  0.85572327  0.25962158  0.89783682    -0.20600
F1108       F  0.83015156  0.23718305  0.84530783    -0.21800
F1109       F  0.79168942  0.25359745  0.89537725    -0.18900
F1110       F  0.80375750  0.37731225  0.75698626    -0.19000
F1111       F  0.86341683  0.38276484  0.78175665    -0.22900
F1112       F  0.81168446  0.40138102  0.81477991    -0.24500
C1113       C  0.68764545  0.66524089  0.67528057    -0.11300
C1114       C  0.65235463  0.67319590  0.65789751     0.11300
C1115       C  0.63850256  0.70342574  0.66131733    -0.03100
C1116       C  0.66190901  0.72524718  0.68021143    -0.05800
C1117       C  0.69809319  0.71756276  0.69603133    -0.16600
C1118       C  0.71091453  0.68696280  0.69430541     0.02300
C1119       C  0.63011945  0.64900434  0.63731680     0.12300
C1120       C  0.59965332  0.71267333  0.64423895     0.62900
H1121       H  0.65262841  0.74874128  0.68190641     0.12300
C1122       C  0.74890174  0.67723273  0.71246884     0.55000
H1123       H  0.69692429  0.64175143  0.67348864     0.08100
C1124       C  0.63904739  0.63976537  0.59807924    -0.05700
C1125       C  0.61625689  0.61700988  0.58042900    -0.06400
C1126       C  0.58605495  0.60270364  0.60119796    -0.16000
C1127       C  0.57807112  0.61115228  0.64090344    -0.01600
C1128       C  0.60035530  0.63432725  0.65830503    -0.09200
C1129       C  0.67285939  0.65346071  0.57524462     0.65100
H1130       H  0.62237091  0.60966061  0.55039793     0.10600
C1131       C  0.54595862  0.59604733  0.66457903     0.63500
H1132       H  0.59484207  0.64121130  0.68862519     0.07900
F1133       F  0.77887414  0.69416250  0.69668073    -0.19500
F1134       F  0.75703930  0.64687826  0.70540235    -0.15800
F1135       F  0.74692137  0.68152814  0.75291754    -0.19300
F1136       F  0.57027999  0.69564381  0.66117836    -0.22600
F1137       F  0.59985893  0.70794685  0.60378744    -0.24100
F1138       F  0.59150236  0.74302321  0.65128036    -0.18100
F1139       F  0.55421606  0.56555227  0.66942409    -0.20600
F1140       F  0.51125026  0.59898444  0.64483762    -0.21800
F1141       F  0.54156147  0.60899812  0.70174843    -0.18900
F1142       F  0.67525933  0.64220259  0.53699706    -0.19000
F1143       F  0.70725821  0.64671348  0.59407547    -0.22900
F1144       F  0.66869495  0.68464291  0.57309530    -0.24500
C1145       C  0.35812987  0.30649978  0.68676707    -0.11300
C1146       C  0.34238094  0.32701664  0.65950174     0.11300
C1147       C  0.30167314  0.32818495  0.65435492    -0.03100
C1148       C  0.27790965  0.31026487  0.67896816    -0.05800
C1149       C  0.29349102  0.29155519  0.70845393    -0.16600
C1150       C  0.33430012  0.28891573  0.71188241     0.02300
C1151       C  0.36892116  0.34869425  0.63904025     0.12300
C1152       C  0.28335711  0.34906902  0.62400622     0.62900
H1153       H  0.24664899  0.31171531  0.67663797     0.12300
C1154       C  0.35263049  0.26885728  0.74304762     0.55000
H1155       H  0.38938061  0.30545745  0.68941476     0.08100
C1156       C  0.38295894  0.37503024  0.65838886    -0.05700
C1157       C  0.40624161  0.39549876  0.63690082    -0.06400
C1158       C  0.41540424  0.39086599  0.59672150    -0.16000
C1159       C  0.40125166  0.36442554  0.57737222    -0.01600
C1160       C  0.37888790  0.34344462  0.59929557    -0.09200
C1161       C  0.37260356  0.38189811  0.70132173     0.65100
H1162       H  0.41714285  0.41573006  0.65132359     0.10600
C1163       C  0.40780750  0.35904661  0.53343845     0.63500
H1164       H  0.36811290  0.32300033  0.58529984     0.07900
F1165       F  0.39256769  0.27193835  0.74373930    -0.19500
F1166       F  0.34424329  0.23875711  0.73521162    -0.15800
F1167       F  0.33848046  0.27662352  0.78006818    -0.19300
F1168       F  0.29517244  0.34062807  0.58638734    -0.22600
F1169       F  0.29436985  0.37879302  0.63096177    -0.24100
F1170       F  0.24325417  0.34781002  0.62536224    -0.18100
F1171       F  0.44661722  0.35327947  0.52617379    -0.20600
F1172       F  0.39632406  0.38438792  0.51239411    -0.21800
F1173       F  0.38671618  0.33449558  0.51966805    -0.18900
F1174       F  0.38737445  0.40957874  0.71358074    -0.19000
F1175       F  0.38757916  0.35964645  0.72563920    -0.22900
F1176       F  0.33275364  0.38286890  0.70600216    -0.24500
C1177       C  0.63073610  0.34745474  0.40994398    -0.11300
C1178       C  0.64578954  0.35604736  0.37295880     0.11300
C1179       C  0.64205570  0.38661769  0.36048411    -0.03100
C1180       C  0.62071098  0.40694395  0.38428346    -0.05800
C1181       C  0.60448582  0.39826522  0.42092046    -0.16600
C1182       C  0.61186860  0.36842828  0.43514581     0.02300
C1183       C  0.66242566  0.33220295  0.34640954     0.12300
C1184       C  0.66063275  0.39789385  0.32227262     0.62900
H1185       H  0.61593099  0.42985578  0.37379010     0.12300
C1186       C  0.60178124  0.35882326  0.47708955     0.55000
H1187       H  0.63351113  0.32394443  0.41889349     0.08100
C1188       C  0.69915415  0.31876200  0.35234829    -0.05700
C1189       C  0.71285114  0.29730354  0.32450202    -0.06400
C1190       C  0.69222913  0.29005007  0.28982880    -0.16000
C1191       C  0.65470633  0.30346002  0.28457304    -0.01600
C1192       C  0.64026352  0.32322362  0.31399897    -0.09200
C1193       C  0.72426052  0.32765377  0.38725618     0.65100
H1194       H  0.74044097  0.28634013  0.32953592     0.10600
C1195       C  0.62937793  0.29860240  0.24838017     0.63500
H1196       H  0.61148898  0.33288481  0.31130845     0.07900
F1197       F  0.62109870  0.33245898  0.48756267    -0.19500
F1198       F  0.56240245  0.35361093  0.48053097    -0.15800
F1199       F  0.61270785  0.38124895  0.50346665    -0.19300
F1200       F  0.64332069  0.38442049  0.28996659    -0.22600
F1201       F  0.69974405  0.39096514  0.32202565    -0.24100
F1202       F  0.65699597  0.42907413  0.31818324    -0.18100
F1203       F  0.61037134  0.27105575  0.25124561    -0.20600
F1204       F  0.65124164  0.29973617  0.21409443    -0.21800
F1205       F  0.60125476  0.32095162  0.24519210    -0.18900
F1206       F  0.75972258  0.31288454  0.38645286    -0.19000
F1207       F  0.70585748  0.32023257  0.42235941    -0.22900
F1208       F  0.73114565  0.35859314  0.38654379    -0.24500
C1209       C  0.37873257  0.62230845  0.36293075    -0.11300
C1210       C  0.35881638  0.64325954  0.38691600     0.11300
C1211       C  0.36087372  0.64063778  0.42863553    -0.03100
C1212       C  0.38562485  0.61848842  0.44490825    -0.05800
C1213       C  0.40557630  0.59745375  0.42093247    -0.16600
C1214       C  0.40127637  0.59880382  0.37921221     0.02300
C1215       C  0.33472628  0.66671645  0.36699573     0.12300
C1216       C  0.33580214  0.66013275  0.45577750     0.62900
H1217       H  0.38832480  0.61653625  0.47672701     0.12300
C1218       C  0.41972552  0.57534203  0.35192566     0.55000
H1219       H  0.37555540  0.62410833  0.33115195     0.08100
C1220       C  0.35050466  0.69441615  0.35350032    -0.05700
C1221       C  0.32665819  0.71441186  0.33210135    -0.06400
C1222       C  0.28786217  0.70734307  0.32213749    -0.16000
C1223       C  0.27111837  0.68094600  0.34033726    -0.01600
C1224       C  0.29555070  0.66050087  0.36038155    -0.09200
C1225       C  0.39275642  0.70246464  0.36073983     0.65100
H1226       H  0.33869024  0.73600747  0.32355567     0.10600
C1227       C  0.22825544  0.67263419  0.34129995     0.63500
H1228       H  0.28362325  0.63945826  0.37186136     0.07900
F1229       F  0.41623898  0.58326500  0.31248614    -0.19500
F1230       F  0.40148580  0.54766457  0.35717151    -0.15800
F1231       F  0.45879156  0.57237402  0.36013322    -0.19300
F1232       F  0.29710872  0.65493483  0.44784270    -0.22600
F1233       F  0.34373449  0.69056667  0.45010569    -0.24100
F1234       F  0.34197656  0.65344098  0.49523182    -0.18100
F1235       F  0.22251352  0.64666683  0.31896873    -0.20600
F1236       F  0.20394971  0.69508279  0.32785007    -0.21800
F1237       F  0.21720707  0.66667667  0.37998074    -0.18900
F1238       F  0.40188008  0.73120398  0.34693943    -0.19000
F1239       F  0.41653091  0.68177467  0.34154365    -0.22900
F1240       F  0.40060546  0.70178939  0.40075098    -0.24500
C1241       C  0.62614244  0.69738910  0.33368191    -0.11300
C1242       C  0.64714102  0.67866316  0.35929662     0.11300
C1243       C  0.68764770  0.68271834  0.36276439    -0.03100
C1244       C  0.70549911  0.70633115  0.34138863    -0.05800
C1245       C  0.68490628  0.72479959  0.31478093    -0.16600
C1246       C  0.64421234  0.72032943  0.31097088     0.02300
C1247       C  0.62614294  0.65365696  0.37993399     0.12300
C1248       C  0.71225568  0.66140502  0.38750400     0.62900
H1249       H  0.73636611  0.70991717  0.34433580     0.12300
C1250       C  0.61926864  0.73958550  0.28401670     0.55000
H1251       H  0.59530351  0.69331195  0.33098347     0.08100
C1252       C  0.60746784  0.65768210  0.41698630    -0.05700
C1253       C  0.58895591  0.63255883  0.43479335    -0.06400
C1254       C  0.58691232  0.60396937  0.41597268    -0.16000
C1255       C  0.60367249  0.60078537  0.37737573    -0.01600
C1256       C  0.62359490  0.62561632  0.36061653    -0.09200
C1257       C  0.60578219  0.68866532  0.43681238     0.65100
H1258       H  0.57556657  0.63525421  0.46366302     0.10600
C1259       C  0.59979741  0.57198632  0.35282314     0.63500
H1260       H  0.63734569  0.62346893  0.33181565     0.07900
F1261       F  0.58012699  0.73572586  0.29200341    -0.19500
F1262       F  0.62569642  0.73154360  0.24502793    -0.15800
F1263       F  0.62764029  0.76991678  0.28925863    -0.19300
F1264       F  0.71129762  0.63256819  0.37124226    -0.22600
F1265       F  0.69831006  0.66016419  0.42589264    -0.24100
F1266       F  0.75059086  0.67068627  0.38888977    -0.18100
F1267       F  0.56142087  0.56295272  0.35201064    -0.20600
F1268       F  0.62248573  0.54920263  0.36866049    -0.21800
F1269       F  0.61169815  0.57630562  0.31399683    -0.18900
F1270       F  0.58850231  0.68729195  0.47388299    -0.19000
F1271       F  0.58437702  0.70828428  0.41367851    -0.22900
F1272       F  0.64265211  0.70035827  0.44132111    -0.24500
C1273       C  0.66272979  0.38108013  0.62465598    -0.11300
C1274       C  0.64399599  0.35643069  0.64248218     0.11300
C1275       C  0.60354130  0.35248239  0.63747625    -0.03100
C1276       C  0.58318916  0.37343520  0.61396226    -0.05800
C1277       C  0.60177342  0.39862497  0.59690061    -0.16600
C1278       C  0.64243656  0.40228427  0.60169920     0.02300
C1279       C  0.66736755  0.33611103  0.66798663     0.12300
C1280       C  0.58183362  0.32679660  0.65780779     0.62900
H1281       H  0.55216503  0.37109855  0.61023612     0.12300
C1282       C  0.66460518  0.42874991  0.58374742     0.55000
H1283       H  0.69346412  0.38404278  0.62983768     0.08100
C1284       C  0.69203853  0.31331860  0.65214207    -0.05700
C1285       C  0.71257479  0.29454844  0.67837603    -0.06400
C1286       C  0.70834032  0.29755840  0.71945091    -0.16000
C1287       C  0.68434626  0.32093566  0.73535086    -0.01600
C1288       C  0.66502625  0.34033469  0.70902141    -0.09200
C1289       C  0.69591547  0.30844917  0.60780910     0.65100
H1290       H  0.73096834  0.27653328  0.66703112     0.10600
C1291       C  0.67889739  0.32555615  0.77973559     0.63500
H1292       H  0.64685211  0.35855122  0.72023351     0.07900
F1293       F  0.70419403  0.42345815  0.58333767    -0.19500
F1294       F  0.65768344  0.45461440  0.60597367    -0.15800
F1295       F  0.65326756  0.43355940  0.54505972    -0.19300
F1296       F  0.58300802  0.33071987  0.69837812    -0.22600
F1297       F  0.59863428  0.29921544  0.64809921    -0.24100
F1298       F  0.54327642  0.32582940  0.64675117    -0.18100
F1299       F  0.65668303  0.35102314  0.78817720    -0.20600
F1300       F  0.71445454  0.32929048  0.79754957    -0.21800
F1301       F  0.66030908  0.30085871  0.79635178    -0.18900
F1302       F  0.71961685  0.28393516  0.59883742    -0.19000
F1303       F  0.71180250  0.33397778  0.59036255    -0.22900
F1304       F  0.65984175  0.30300365  0.59168951    -0.24500
C1305       C  0.34585411  0.61907265  0.62188840    -0.11300
C1306       C  0.36532586  0.64498316  0.63517207     0.11300
C1307       C  0.40613139  0.64685606  0.63155431    -0.03100
C1308       C  0.42597525  0.62308510  0.61229320    -0.05800
C1309       C  0.40657710  0.59701652  0.59882340    -0.16600
C1310       C  0.36571644  0.59485772  0.60372615     0.02300
C1311       C  0.34176604  0.66945690  0.65341727     0.12300
C1312       C  0.42857755  0.67347177  0.64861983     0.62900
H1313       H  0.45702601  0.62452064  0.60800572     0.12300
C1314       C  0.34277576  0.56760871  0.58930564     0.55000
H1315       H  0.31469973  0.61804078  0.62601842     0.08100
C1316       C  0.32254271  0.69141387  0.63049125    -0.05700
C1317       C  0.29930441  0.71316407  0.64990470    -0.06400
C1318       C  0.29272186  0.71276743  0.69138535    -0.16000
C1319       C  0.31424508  0.69113724  0.71430311    -0.01600
C1320       C  0.33723425  0.66949850  0.69442470    -0.09200
C1321       C  0.32559689  0.69110033  0.58551724     0.65100
H1322       H  0.28673292  0.73064644  0.63196872     0.10600
C1323       C  0.31491009  0.68830487  0.75935238     0.63500
H1324       H  0.35221492  0.65219180  0.71131171     0.07900
F1325       F  0.30319264  0.57286243  0.59082998    -0.19500
F1326       F  0.35062365  0.54281324  0.61299170    -0.15800
F1327       F  0.35255162  0.56101127  0.55044366    -0.19300
F1328       F  0.42294492  0.67469692  0.68913707    -0.22600
F1329       F  0.41600246  0.70040233  0.63211617    -0.24100
F1330       F  0.46803124  0.67084499  0.64143809    -0.18100
F1331       F  0.29694055  0.66143577  0.77004624    -0.20600
F1332       F  0.29746467  0.71162952  0.77997091    -0.21800
F1333       F  0.35304874  0.68724758  0.77176930    -0.18900
F1334       F  0.30605236  0.71522055  0.56856167    -0.19000
F1335       F  0.30967124  0.66452279  0.57107827    -0.22900
F1336       F  0.36399482  0.69271617  0.57369984    -0.24500
C1337       C  0.32454900  0.31001866  0.35907546    -0.11300
C1338       C  0.35051246  0.33163130  0.34388778     0.11300
C1339       C  0.35316399  0.33609121  0.30248031    -0.03100
C1340       C  0.32905570  0.31894586  0.27759869    -0.05800
C1341       C  0.30183113  0.29817567  0.29269664    -0.16600
C1342       C  0.29920118  0.29375385  0.33422325     0.02300
C1343       C  0.37181478  0.35152395  0.37198648     0.12300
C1344       C  0.38008042  0.35989043  0.28481921     0.62900
H1345       H  0.32999486  0.32266250  0.24595043     0.12300
C1346       C  0.26778428  0.27412113  0.35252531     0.55000
H1347       H  0.32291016  0.30724741  0.39088041     0.08100
C1348       C  0.35407319  0.37754431  0.38885789    -0.05700
C1349       C  0.37680403  0.39736896  0.41161555    -0.06400
C1350       C  0.41648931  0.39207267  0.41824132    -0.16000
C1351       C  0.43396344  0.36542371  0.40227443    -0.01600
C1352       C  0.41099512  0.34540546  0.37965483    -0.09200
C1353       C  0.31122618  0.38432199  0.38297406     0.65100
H1354       H  0.36357978  0.41744789  0.42450070     0.10600
C1355       C  0.47686353  0.35877288  0.40729831     0.63500
H1356       H  0.42371230  0.32518031  0.36663477     0.07900
F1357       F  0.26876687  0.27473293  0.39347140    -0.19500
F1358       F  0.27235085  0.24431173  0.34062591    -0.15800
F1359       F  0.23190647  0.28471989  0.34090704    -0.19300
F1360       F  0.41805572  0.35324690  0.29430855    -0.22600
F1361       F  0.37067516  0.38831271  0.29956902    -0.24100
F1362       F  0.37745558  0.36104332  0.24398531    -0.18100
F1363       F  0.48848297  0.33350241  0.38579227    -0.20600
F1364       F  0.48465567  0.35324589  0.44668829    -0.21800
F1365       F  0.49857073  0.38329284  0.39435694    -0.18900
F1366       F  0.30091903  0.41245218  0.39818934    -0.19000
F1367       F  0.28924942  0.36248497  0.40204834    -0.22900
F1368       F  0.30222963  0.38422282  0.34316370    -0.24500
loop_ 
_geom_bond_atom_site_label_1 
_geom_bond_atom_site_label_2 
_geom_bond_distance 
_geom_bond_site_symmetry_2 
_ccdc_geom_bond_type 
O1          Zr13   2.443       .  S
O1            C3   1.289       .  A
O2          Zr39   2.437       .  S
O2            C3   1.288       .  A
C3         C1158   1.491       .  S
O4          Zr16   2.444       .  S
O4            C6   1.288       .  A
O5          Zr40   2.435       .  S
O5            C6   1.289       .  A
C6         C1213   1.486       .  S
O7          Zr16   2.434       .  S
O7            C9   1.287       .  A
O8          Zr39   2.443       .  S
O8            C9   1.289       .  A
C9         C1350   1.491       .  S
O10         Zr13   2.442       .  S
O10          C12   1.288       .  A
O11         Zr40   2.423       .  S
O11          C12   1.287       .  A
C12        C1309   1.481       .  S
Zr13         O14   2.433       .  S
Zr13         O15   2.435       .  S
Zr13         O19   2.369       .  S
Zr13         O20   2.369       .  S
Zr13         O43   2.375       .  S
Zr13         O45   2.369       .  S
O14          H57   0.990       .  S
O15          H56   0.990       .  S
O15          H60   0.990       .  S
Zr16         O17   2.436       .  S
Zr16         O18   2.435       .  S
Zr16         O20   2.366       .  S
Zr16         O19   2.373       .  S
Zr16         O44   2.372       .  S
Zr16         O46   2.372       .  S
O17          H58   0.990       .  S
O17          H61   0.990       .  S
O18          H51   0.990       .  S
O19         Zr39   2.384       .  S
O20         Zr40   2.389       .  S
O20          H47   0.964       .  S
O21         Zr33   2.439       .  S
O21          C23   1.286       .  A
O22         Zr40   2.441       .  S
O22          C23   1.289       .  A
C23        C1126   1.478       .  S
O24         Zr36   2.440       .  S
O24          C26   1.289       .  A
O25         Zr39   2.435       .  S
O25          C26   1.288       .  A
C26        C1181   1.495       .  S
O27         Zr36   2.446       .  S
O27          C29   1.287       .  A
O28         Zr40   2.445       .  S
O28          C29   1.292       .  A
C29        C1254   1.503       .  S
O30         Zr33   2.428       .  S
O30          C32   1.285       .  A
O31         Zr39   2.439       .  S
O31          C32   1.290       .  A
C32        C1277   1.483       .  S
Zr33         O34   2.437       .  S
Zr33         O35   2.434       .  S
Zr33         O41   2.370       .  S
Zr33         O42   2.370       .  S
Zr33         O45   2.375       .  S
Zr33         O43   2.369       .  S
O34          H54   0.989       .  S
O34          H59   0.990       .  S
O35          H55   0.990       .  S
Zr36         O37   2.433       .  S
Zr36         O38   2.434       .  S
Zr36         O42   2.373       .  S
Zr36         O41   2.374       .  S
Zr36         O46   2.369       .  S
Zr36         O44   2.367       .  S
O37          H53   0.990       .  S
O38          H52   0.990       .  S
O38          H62   0.989       .  S
Zr39         O42   2.386       .  S
Zr39         O44   2.389       .  S
Zr39         O45   2.390       .  S
Zr40         O41   2.381       .  S
Zr40         O43   2.387       .  S
Zr40         O46   2.383       .  S
O41          H49   0.965       .  S
O44          H48   0.966       .  S
O45          H50   0.966       .  S
O63         Zr75   2.452       .  S
O63          C65   1.288       .  A
O64        Zr101   2.425   1_556  S
O64          C65   1.286       .  A
C65        C1085   1.477       .  S
O66         Zr78   2.455       .  S
O66          C68   1.290       .  A
O67        Zr102   2.456   1_456  S
O67          C68   1.292       .  A
C68         C957   1.506       .  S
O69         Zr78   2.454       .  S
O69          C71   1.289       .  A
O70        Zr101   2.438   1_456  S
O70          C71   1.290       .  A
C71        C1030   1.496       .  S
O72         Zr75   2.434       .  S
O72          C74   1.286       .  A
O73        Zr102   2.433   1_556  S
O73          C74   1.290       .  A
C74         C998   1.491       .  S
Zr75         O76   2.435       .  S
Zr75         O77   2.436       .  S
Zr75         O81   2.367       .  S
Zr75         O82   2.376       .  S
Zr75        O105   2.376       .  S
Zr75        O107   2.368       .  S
O76         H119   0.990       .  S
O77         H118   0.990       .  S
O77         H122   0.990       .  S
Zr78         O79   2.436       .  S
Zr78         O80   2.432       .  S
Zr78         O82   2.370   1_455  S
Zr78         O81   2.374   1_455  S
Zr78        O106   2.372   1_556  S
Zr78        O108   2.377   1_556  S
O79         H120   0.990       .  S
O79         H123   0.990       .  S
O80         H113   0.990       .  S
O81        Zr101   2.381   1_556  S
O82        Zr102   2.388   1_556  S
O82         H109   0.966       .  S
O83         Zr95   2.448       .  S
O83          C85   1.289       .  A
O84        Zr102   2.438       .  S
O84          C85   1.288       .  A
C85         C925   1.480       .  S
O86         Zr98   2.459       .  S
O86          C88   1.292       .  A
O87        Zr101   2.424   1_455  S
O87          C88   1.283       .  A
C88         C870   1.510       .  S
O89         Zr98   2.442       .  S
O89          C91   1.287       .  A
O90        Zr102   2.439   1_455  S
O90          C91   1.289       .  A
C91         C902   1.485       .  S
O92         Zr95   2.442       .  S
O92          C94   1.288       .  A
O93        Zr101   2.440       .  S
O93          C94   1.289       .  A
C94        C1053   1.475       .  S
Zr95         O96   2.435       .  S
Zr95         O97   2.435       .  S
Zr95        O103   2.369       .  S
Zr95        O104   2.375       .  S
Zr95        O107   2.372   1_554  S
Zr95        O105   2.370   1_554  S
O96         H116   0.990       .  S
O96         H121   0.990       .  S
O97         H117   0.990       .  S
Zr98         O99   2.434       .  S
Zr98        O100   2.436       .  S
Zr98        O104   2.365   1_455  S
Zr98        O103   2.372   1_455  S
Zr98        O108   2.383       .  S
Zr98        O106   2.371       .  S
O99         H115   0.990       .  S
O100        H114   0.990       .  S
O100        H124   0.990       .  S
Zr101       O104   2.380       .  S
Zr101       O106   2.383   1_655  S
Zr101       O107   2.385   1_554  S
Zr102       O103   2.388       .  S
Zr102       O105   2.389   1_554  S
Zr102       O108   2.388   1_655  S
O103        H111   0.966       .  S
O106        H110   0.966       .  S
O107        H112   0.966       .  S
C125        C126   1.540       .  S
C125        C131   1.536       .  S
C125        C129   1.540       .  S
C125        C829   1.546       .  S
C126        H133   1.077       .  S
C126        C127   1.373       .  D
C127        C128   1.553       .  S
C127       C1094   1.513       .  S
C128        C132   1.544       .  S
C128        C130   1.543       .  S
C128        H134   1.110       .  S
C129        H135   1.084       .  S
C129        C130   1.359       .  D
C130       C1286   1.480       .  S
C131        H136   1.085       .  S
C131        C132   1.362       .  D
C132        C797   1.490       .  S
O137       Zr149   2.449   1_545  S
O137        C139   1.290       .  A
O138       Zr175   2.410       .  S
O138        C139   1.282       .  A
C139        C838   1.484       .  S
O140       Zr152   2.439   1_565  S
O140        C142   1.287       .  A
O141       Zr176   2.440       .  S
O141        C142   1.290       .  A
C142        C774   1.484       .  S
O143       Zr152   2.447       .  S
O143        C145   1.289       .  A
O144       Zr175   2.427       .  S
O144        C145   1.286       .  A
C145        C710   1.477       .  S
O146       Zr149   2.440       .  S
O146        C148   1.286       .  A
O147       Zr176   2.437       .  S
O147        C148   1.289       .  A
C148        C678   1.484       .  S
Zr149       O150   2.436       .  S
Zr149       O151   2.436       .  S
Zr149       O155   2.363   1_565  S
Zr149       O156   2.372       .  S
Zr149       O179   2.375       .  S
Zr149       O181   2.370   1_565  S
O150        H193   0.990   1_565  S
O151        H192   0.990       .  S
O151        H196   0.990       .  S
Zr152       O153   2.437   1_545  S
Zr152       O154   2.434       .  S
Zr152       O156   2.378   1_545  S
Zr152       O155   2.373       .  S
Zr152       O180   2.364   1_556  S
Zr152       O182   2.370   1_546  S
O153        H194   0.990   1_565  S
O153        H197   0.990       .  S
O154        H187   0.990       .  S
O155       Zr175   2.385       .  S
O156       Zr176   2.392       .  S
O156        H183   0.966       .  S
O157       Zr169   2.418       .  S
O157        C159   1.283       .  A
O158       Zr176   2.448   1_554  S
O158        C159   1.291       .  A
C159        C742   1.483       .  S
O160       Zr172   2.464   1_545  S
O160        C162   1.291       .  A
O161       Zr175   2.421   1_554  S
O161        C162   1.288       .  A
C162        C614   1.503       .  S
O163       Zr172   2.457       .  S
O163        C165   1.292       .  A
O164       Zr176   2.429   1_554  S
O164        C165   1.285       .  A
C165        C646   1.510       .  S
O166       Zr169   2.431   1_545  S
O166        C168   1.283       .  A
O167       Zr175   2.450   1_554  S
O167        C168   1.292       .  A
C168        C582   1.493       .  S
Zr169       O170   2.435       .  S
Zr169       O171   2.432       .  S
Zr169       O177   2.369       .  S
Zr169       O178   2.371   1_565  S
Zr169       O181   2.357   1_564  S
Zr169       O179   2.371   1_554  S
O170        H190   0.990   1_565  S
O170        H195   0.990   1_565  S
O171        H191   0.990       .  S
Zr172       O173   2.434       .  S
Zr172       O174   2.436       .  S
Zr172       O178   2.375   1_565  S
Zr172       O177   2.374       .  S
Zr172       O182   2.372       .  S
Zr172       O180   2.372   1_565  S
O173        H189   0.990       .  S
O174        H188   0.990       .  S
O174        H198   0.990       .  S
Zr175       O178   2.377   1_556  S
Zr175       O180   2.387   1_556  S
Zr175       O181   2.375       .  S
Zr176       O177   2.387   1_556  S
Zr176       O179   2.383       .  S
Zr176       O182   2.387   1_556  S
O177        H185   0.966       .  S
O180        H184   0.966       .  S
O181        H186   0.966       .  S
C199        C200   1.549       .  S
C199        C205   1.534       .  S
C199        C203   1.535       .  S
C199       C1318   1.543       .  S
C200        H207   1.077       .  S
C200        C201   1.367       .  D
C201        C202   1.552       .  S
C201        C550   1.501       .  S
C202        C206   1.553       .  S
C202        C204   1.540       .  S
C202        H208   1.110       .  S
C203        H209   1.087       .  S
C203        C204   1.359       .  D
C204        C765   1.485       .  S
C205        H210   1.086       .  S
C205        C206   1.364       .  D
C206        C966   1.499       .  S
O211       Zr223   2.450       .  S
O211        C213   1.291       .  A
O212       Zr249   2.427       .  S
O212        C213   1.286       .  A
C213        C509   1.492       .  S
O214       Zr226   2.448   1_565  S
O214        C216   1.288       .  A
O215       Zr250   2.419       .  S
O215        C216   1.285       .  A
C216        C413   1.479       .  S
O217       Zr226   2.429       .  S
O217        C219   1.283       .  A
O218       Zr249   2.448       .  S
O218        C219   1.292       .  A
C219        C806   1.507       .  S
O220       Zr223   2.453   1_565  S
O220        C222   1.290       .  A
O221       Zr250   2.421       .  S
O221        C222   1.285       .  A
C222        C486   1.485       .  S
Zr223       O224   2.434       .  S
Zr223       O225   2.435       .  S
Zr223       O229   2.377       .  S
Zr223       O230   2.370   1_545  S
Zr223       O253   2.376   1_645  S
Zr223       O255   2.373   1_655  S
O224        H267   0.990       .  S
O225        H266   0.990       .  S
O225        H270   0.990       .  S
Zr226       O227   2.436       .  S
Zr226       O228   2.435       .  S
Zr226       O230   2.365   1_545  S
Zr226       O229   2.377       .  S
Zr226       O254   2.374       .  S
Zr226       O256   2.363   1_545  S
O227        H268   0.990   1_545  S
O227        H271   0.990       .  S
O228        H261   0.990       .  S
O229       Zr249   2.385       .  S
O230       Zr250   2.379       .  S
O230        H257   0.965       .  S
O231       Zr243   2.460   1_565  S
O231        C233   1.290       .  A
O232       Zr250   2.427   1_455  S
O232        C233   1.286       .  A
C233        C454   1.482       .  S
O234       Zr246   2.459       .  S
O234        C236   1.293       .  A
O235       Zr249   2.427   1_455  S
O235        C236   1.284       .  A
C236        C358   1.508       .  S
O237       Zr246   2.447   1_565  S
O237        C239   1.291       .  A
O238       Zr250   2.409   1_455  S
O238        C239   1.281       .  A
C239        C541   1.495       .  S
O240       Zr243   2.440       .  S
O240        C242   1.287       .  A
O241       Zr249   2.434   1_455  S
O241        C242   1.288       .  A
C242        C390   1.474       .  S
Zr243       O244   2.435       .  S
Zr243       O245   2.434       .  S
Zr243       O251   2.369   1_545  S
Zr243       O252   2.377       .  S
Zr243       O255   2.379       .  S
Zr243       O253   2.372   1_545  S
O244        H264   0.990       .  S
O244        H269   0.990       .  S
O245        H265   0.989       .  S
Zr246       O247   2.434       .  S
Zr246       O248   2.436       .  S
Zr246       O252   2.367       .  S
Zr246       O251   2.380   1_545  S
Zr246       O256   2.372   1_445  S
Zr246       O254   2.371   1_455  S
O247        H263   0.990       .  S
O248        H262   0.990       .  S
O248        H272   0.990       .  S
Zr249       O252   2.384   1_655  S
Zr249       O254   2.386       .  S
Zr249       O255   2.392   1_655  S
Zr250       O251   2.385   1_655  S
Zr250       O253   2.378   1_655  S
Zr250       O256   2.382       .  S
O251        H259   0.966       .  S
O254        H258   0.966       .  S
O255        H260   0.966       .  S
C273        C274   1.544       .  S
C273        C279   1.537       .  S
C273        C277   1.527       .  S
C273        C477   1.538       .  S
C274        H281   1.083       .  S
C274        C275   1.373       .  D
C275        C276   1.550       .  S
C275       C1245   1.503       .  S
C276        C280   1.549       .  S
C276        C278   1.545       .  S
C276        H282   1.105       .  S
C277        H283   1.087       .  S
C277        C278   1.361       .  D
C278        C934   1.485       .  S
C279        H284   1.085       .  S
C279        C280   1.362       .  D
C280        C733   1.489       .  S
C285        C286   1.537       .  S
C285        C291   1.530       .  S
C285        C289   1.550       .  S
C285        C861   1.550       .  S
C286        H293   1.085       .  S
C286        C287   1.369       .  D
C287        C288   1.551       .  S
C287        C605   1.495       .  S
C288        C292   1.544       .  S
C288        C290   1.548       .  S
C288        H294   1.101       .  S
C289        H295   1.083       .  S
C289        C290   1.371       .  D
C290        C381   1.504       .  S
C291        H296   1.087       .  S
C291        C292   1.361       .  D
C292       C1341   1.492       .  S
C297        C298   1.535       .  S
C297        C303   1.539       .  S
C297        C301   1.541       .  S
C297        C573   1.550       .  S
C298        H305   1.077       .  S
C298        C299   1.368       .  D
C299        C300   1.553       .  S
C299       C1190   1.511       .  S
C300        C304   1.542       .  S
C300        C302   1.543       .  S
C300        H306   1.103       .  S
C301        H307   1.082       .  S
C301        C302   1.371       .  D
C302       C1062   1.498       .  S
C303        H308   1.086       .  S
C303        C304   1.361       .  D
C304        C518   1.487       .  S
C309        C310   1.550       .  S
C309        C315   1.539       .  S
C309        C313   1.537       .  S
C309       C1222   1.551       .  S
C310        H317   1.083       .  S
C310        C311   1.366       .  D
C311        C312   1.539       .  S
C311        C637   1.489       .  S
C312        C316   1.543       .  S
C312        C314   1.539       .  S
C312        H318   1.111       .  S
C313        H319   1.084       .  S
C313        C314   1.366       .  D
C314        C445   1.490       .  S
C315        H320   1.084       .  S
C315        C316   1.368       .  D
C316        C893   1.493       .  S
C321        C322   1.546       .  S
C321        C327   1.534       .  S
C321        C325   1.544       .  S
C321       C1021   1.551       .  S
C322        H329   1.082       .  S
C322        C323   1.362       .  D
C323        C324   1.543       .  S
C323        C349   1.487       .  S
C324        C328   1.541       .  S
C324        C326   1.545       .  S
C324        H330   1.100       .  S
C325        H331   1.086       .  S
C325        C326   1.375       .  D
C326        C701   1.510       .  S
C327        H332   1.086       .  S
C327        C328   1.363       .  D
C328       C1149   1.488       .  S
C333        C334   1.547       .  S
C333        C339   1.545       .  S
C333        C337   1.531       .  S
C333        C422   1.546       .  S
C334        H341   1.084       .  S
C334        C335   1.372       .  D
C335        C336   1.539       .  S
C335        C989   1.498       .  S
C336        C340   1.544       .  S
C336        C338   1.543       .  S
C336        H342   1.103       .  S
C337        H343   1.086       .  S
C337        C338   1.363       .  D
C338       C1117   1.488       .  S
C339        H344   1.084       .  S
C339        C340   1.364       .  D
C340        C669   1.489       .  S
C345        C346   1.396       .  A
C345        C350   1.401       .  A
C345        H355   1.085       .  S
C346        C351   1.485       .  S
C346        C347   1.414       .  A
C347        C352   1.517       .  S
C347        C348   1.411       .  A
C348        C349   1.406       .  A
C348        H353   1.083       .  S
C349        C350   1.427       .  A
C350        C354   1.524       .  S
C351        C356   1.412       .  A
C351        C360   1.398       .  A
C352        F368   1.383       .  S
C352        F369   1.381       .  S
C352        F370   1.385       .  S
C354        F365   1.385       .  S
C354        F366   1.383       .  S
C354        F367   1.378       .  S
C356        C361   1.522       .  S
C356        C357   1.407       .  A
C357        C358   1.413       .  A
C357        H362   1.082       .  S
C358        C359   1.433       .  A
C359        C363   1.523       .  S
C359        C360   1.411       .  A
C360        H364   1.083       .  S
C361        F374   1.384       .  S
C361        F375   1.383       .  S
C361        F376   1.381       .  S
C363        F371   1.385       .  S
C363        F372   1.382       .  S
C363        F373   1.382       .  S
C377        C378   1.400       .  A
C377        C382   1.410       .  A
C377        H387   1.083       .  S
C378        C383   1.486       .  S
C378        C379   1.411       .  A
C379        C384   1.520       .  S
C379        C380   1.406       .  A
C380        C381   1.410       .  A
C380        H385   1.082       .  S
C381        C382   1.425       .  A
C382        C386   1.515       .  S
C383        C388   1.417       .  A
C383        C392   1.404       .  A
C384        F400   1.382       .  S
C384        F401   1.382       .  S
C384        F402   1.384       .  S
C386        F397   1.385       .  S
C386        F398   1.379       .  S
C386        F399   1.377       .  S
C388        C393   1.520       .  S
C388        C389   1.404       .  A
C389        C390   1.399       .  A
C389        H394   1.084       .  S
C390        C391   1.416       .  A
C391        C395   1.516       .  S
C391        C392   1.410       .  A
C392        H396   1.083       .  S
C393        F406   1.385       .  S
C393        F407   1.382       .  S
C393        F408   1.381       .  S
C395        F403   1.385       .  S
C395        F404   1.383       .  S
C395        F405   1.378       .  S
C409        C410   1.400       .  A
C409        C414   1.405       .  A
C409        H419   1.083       .  S
C410        C415   1.484       .  S
C410        C411   1.416       .  A
C411        C416   1.519       .  S
C411        C412   1.408       .  A
C412        C413   1.404       .  A
C412        H417   1.083       .  S
C413        C414   1.418       .  A
C414        C418   1.518       .  S
C415        C420   1.413       .  A
C415        C424   1.398       .  A
C416        F432   1.383       .  S
C416        F433   1.382       .  S
C416        F434   1.385       .  S
C418        F429   1.384       .  S
C418        F430   1.382       .  S
C418        F431   1.383       .  S
C420        C425   1.521       .  S
C420        C421   1.406       .  A
C421        C422   1.413       .  A
C421        H426   1.079       .  S
C422        C423   1.431       .  A
C423        C427   1.520       .  S
C423        C424   1.408       .  A
C424        H428   1.085       .  S
C425        F438   1.384       .  S
C425        F439   1.382       .  S
C425        F440   1.382       .  S
C427        F435   1.385       .  S
C427        F436   1.377       .  S
C427        F437   1.382       .  S
C441        C442   1.402       .  A
C441        C446   1.408       .  A
C441        H451   1.083       .  S
C442        C447   1.488       .  S
C442        C443   1.416       .  A
C443        C448   1.520       .  S
C443        C444   1.410       .  A
C444        C445   1.405       .  A
C444        H449   1.083       .  S
C445        C446   1.419       .  A
C446        C450   1.518       .  S
C447        C452   1.417       .  A
C447        C456   1.403       .  A
C448        F464   1.382       .  S
C448        F465   1.381       .  S
C448        F466   1.385       .  S
C450        F461   1.381       .  S
C450        F462   1.382       .  S
C450        F463   1.384       .  S
C452        C457   1.521       .  S
C452        C453   1.411       .  A
C453        C454   1.404       .  A
C453        H458   1.080       .  S
C454        C455   1.415       .  A
C455        C459   1.517       .  S
C455        C456   1.408       .  A
C456        H460   1.083       .  S
C457        F470   1.384       .  S
C457        F471   1.383       .  S
C457        F472   1.380       .  S
C459        F467   1.385       .  S
C459        F468   1.383       .  S
C459        F469   1.383       .  S
C473        C474   1.400       .  A
C473        C478   1.407       .  A
C473        H483   1.085       .  S
C474        C479   1.480       .  S
C474        C475   1.412       .  A
C475        C480   1.521       .  S
C475        C476   1.404       .  A
C476        C477   1.413       .  A
C476        H481   1.081       .  S
C477        C478   1.426       .  A
C478        C482   1.520       .  S
C479        C484   1.414       .  A
C479        C488   1.399       .  A
C480        F496   1.383       .  S
C480        F497   1.381       .  S
C480        F498   1.384       .  S
C482        F493   1.385       .  S
C482        F494   1.380       .  S
C482        F495   1.382       .  S
C484        C489   1.520       .  S
C484        C485   1.407       .  A
C485        C486   1.406       .  A
C485        H490   1.083       .  S
C486        C487   1.420       .  A
C487        C491   1.516       .  S
C487        C488   1.404       .  A
C488        H492   1.083       .  S
C489        F502   1.385       .  S
C489        F503   1.382       .  S
C489        F504   1.381       .  S
C491        F499   1.385       .  S
C491        F500   1.383       .  S
C491        F501   1.380       .  S
C505        C506   1.401       .  A
C505        C510   1.411       .  A
C505        H515   1.083       .  S
C506        C511   1.487       .  S
C506        C507   1.415       .  A
C507        C512   1.522       .  S
C507        C508   1.407       .  A
C508        C509   1.407       .  A
C508        H513   1.083       .  S
C509        C510   1.424       .  A
C510        C514   1.520       .  S
C511        C516   1.414       .  A
C511        C520   1.405       .  A
C512        F528   1.382       .  S
C512        F529   1.382       .  S
C512        F530   1.384       .  S
C514        F525   1.383       .  S
C514        F526   1.385       .  S
C514        F527   1.383       .  S
C516        C521   1.521       .  S
C516        C517   1.405       .  A
C517        C518   1.404       .  A
C517        H522   1.083       .  S
C518        C519   1.416       .  A
C519        C523   1.516       .  S
C519        C520   1.412       .  A
C520        H524   1.083       .  S
C521        F534   1.384       .  S
C521        F535   1.382       .  S
C521        F536   1.382       .  S
C523        F531   1.382       .  S
C523        F532   1.382       .  S
C523        F533   1.384       .  S
C537        C538   1.398       .  A
C537        C542   1.407       .  A
C537        H547   1.083       .  S
C538        C543   1.483       .  S
C538        C539   1.414       .  A
C539        C544   1.521       .  S
C539        C540   1.403       .  A
C540        C541   1.409       .  A
C540        H545   1.082       .  S
C541        C542   1.430       .  A
C542        C546   1.522       .  S
C543        C548   1.412       .  A
C543        C552   1.395       .  A
C544        F560   1.381       .  S
C544        F561   1.382       .  S
C544        F562   1.385       .  S
C546        F557   1.382       .  S
C546        F558   1.385       .  S
C546        F559   1.383       .  S
C548        C553   1.519       .  S
C548        C549   1.408       .  A
C549        C550   1.408       .  A
C549        H554   1.081       .  S
C550        C551   1.435       .  A
C551        C555   1.526       .  S
C551        C552   1.404       .  A
C552        H556   1.084       .  S
C553        F566   1.384       .  S
C553        F567   1.382       .  S
C553        F568   1.382       .  S
C555        F563   1.382       .  S
C555        F564   1.376       .  S
C555        F565   1.386       .  S
C569        C570   1.397       .  A
C569        C574   1.410       .  A
C569        H579   1.084       .  S
C570        C575   1.490       .  S
C570        C571   1.412       .  A
C571        C576   1.521       .  S
C571        C572   1.406       .  A
C572        C573   1.417       .  A
C572        H577   1.079       .  S
C573        C574   1.435       .  A
C574        C578   1.522       .  S
C575        C580   1.417       .  A
C575        C584   1.399       .  A
C576        F592   1.382       .  S
C576        F593   1.382       .  S
C576        F594   1.385       .  S
C578        F589   1.386       .  S
C578        F590   1.383       .  S
C578        F591   1.377       .  S
C580        C585   1.519       .  S
C580        C581   1.408       .  A
C581        C582   1.405       .  A
C581        H586   1.083       .  S
C582        C583   1.428       .  A
C583        C587   1.521       .  S
C583        C584   1.409       .  A
C584        H588   1.083       .  S
C585        F598   1.385       .  S
C585        F599   1.382       .  S
C585        F600   1.383       .  S
C587        F595   1.386       .  S
C587        F596   1.382       .  S
C587        F597   1.382       .  S
C601        C602   1.405       .  A
C601        C606   1.413       .  A
C601        H611   1.083       .  S
C602        C607   1.489       .  S
C602        C603   1.415       .  A
C603        C608   1.521       .  S
C603        C604   1.405       .  A
C604        C605   1.405       .  A
C604        H609   1.083       .  S
C605        C606   1.419       .  A
C606        C610   1.517       .  S
C607        C612   1.413       .  A
C607        C616   1.400       .  A
C608        F624   1.382       .  S
C608        F625   1.381       .  S
C608        F626   1.384       .  S
C610        F621   1.385       .  S
C610        F622   1.381       .  S
C610        F623   1.382       .  S
C612        C617   1.521       .  S
C612        C613   1.409       .  A
C613        C614   1.414       .  A
C613        H618   1.082       .  S
C614        C615   1.427       .  A
C615        C619   1.520       .  S
C615        C616   1.410       .  A
C616        H620   1.083       .  S
C617        F630   1.385       .  S
C617        F631   1.382       .  S
C617        F632   1.382       .  S
C619        F627   1.385       .  S
C619        F628   1.383       .  S
C619        F629   1.383       .  S
C633        C634   1.401       .  A
C633        C638   1.405       .  A
C633        H643   1.085       .  S
C634        C639   1.490       .  S
C634        C635   1.417       .  A
C635        C640   1.518       .  S
C635        C636   1.409       .  A
C636        C637   1.404       .  A
C636        H641   1.082       .  S
C637        C638   1.424       .  A
C638        C642   1.522       .  S
C639        C644   1.412       .  A
C639        C648   1.400       .  A
C640        F656   1.382       .  S
C640        F657   1.383       .  S
C640        F658   1.384       .  S
C642        F653   1.384       .  S
C642        F654   1.383       .  S
C642        F655   1.381       .  S
C644        C649   1.521       .  S
C644        C645   1.406       .  A
C645        C646   1.413       .  A
C645        H650   1.081       .  S
C646        C647   1.432       .  A
C647        C651   1.522       .  S
C647        C648   1.413       .  A
C648        H652   1.083       .  S
C649        F662   1.384       .  S
C649        F663   1.382       .  S
C649        F664   1.383       .  S
C651        F659   1.385       .  S
C651        F660   1.380       .  S
C651        F661   1.384       .  S
C665        C666   1.397       .  A
C665        C670   1.402       .  A
C665        H675   1.085       .  S
C666        C671   1.486       .  S
C666        C667   1.416       .  A
C667        C672   1.518       .  S
C667        C668   1.411       .  A
C668        C669   1.405       .  A
C668        H673   1.083       .  S
C669        C670   1.429       .  A
C670        C674   1.525       .  S
C671        C676   1.417       .  A
C671        C680   1.400       .  A
C672        F688   1.382       .  S
C672        F689   1.382       .  S
C672        F690   1.384       .  S
C674        F685   1.385       .  S
C674        F686   1.383       .  S
C674        F687   1.378       .  S
C676        C681   1.520       .  S
C676        C677   1.411       .  A
C677        C678   1.406       .  A
C677        H682   1.083       .  S
C678        C679   1.420       .  A
C679        C683   1.519       .  S
C679        C680   1.405       .  A
C680        H684   1.083       .  S
C681        F694   1.385       .  S
C681        F695   1.382       .  S
C681        F696   1.382       .  S
C683        F691   1.382       .  S
C683        F692   1.383       .  S
C683        F693   1.385       .  S
C697        C698   1.397       .  A
C697        C702   1.409       .  A
C697        H707   1.083       .  S
C698        C703   1.489       .  S
C698        C699   1.412       .  A
C699        C704   1.519       .  S
C699        C700   1.410       .  A
C700        C701   1.412       .  A
C700        H705   1.082       .  S
C701        C702   1.430       .  A
C702        C706   1.519       .  S
C703        C708   1.418       .  A
C703        C712   1.405       .  A
C704        F720   1.382       .  S
C704        F721   1.383       .  S
C704        F722   1.384       .  S
C706        F717   1.385       .  S
C706        F718   1.378       .  S
C706        F719   1.375       .  S
C708        C713   1.520       .  S
C708        C709   1.405       .  A
C709        C710   1.400       .  A
C709        H714   1.084       .  S
C710        C711   1.418       .  A
C711        C715   1.519       .  S
C711        C712   1.411       .  A
C712        H716   1.083       .  S
C713        F726   1.385       .  S
C713        F727   1.382       .  S
C713        F728   1.382       .  S
C715        F723   1.385       .  S
C715        F724   1.384       .  S
C715        F725   1.382       .  S
C729        C730   1.397       .  A
C729        C734   1.402       .  A
C729        H739   1.085       .  S
C730        C735   1.485       .  S
C730        C731   1.414       .  A
C731        C736   1.518       .  S
C731        C732   1.412       .  A
C732        C733   1.407       .  A
C732        H737   1.083       .  S
C733        C734   1.426       .  A
C734        C738   1.523       .  S
C735        C740   1.416       .  A
C735        C744   1.400       .  A
C736        F752   1.383       .  S
C736        F753   1.382       .  S
C736        F754   1.384       .  S
C738        F749   1.384       .  S
C738        F750   1.383       .  S
C738        F751   1.379       .  S
C740        C745   1.519       .  S
C740        C741   1.409       .  A
C741        C742   1.403       .  A
C741        H746   1.080       .  S
C742        C743   1.422       .  A
C743        C747   1.519       .  S
C743        C744   1.405       .  A
C744        H748   1.084       .  S
C745        F758   1.384       .  S
C745        F759   1.382       .  S
C745        F760   1.382       .  S
C747        F755   1.382       .  S
C747        F756   1.384       .  S
C747        F757   1.384       .  S
C761        C762   1.400       .  A
C761        C766   1.405       .  A
C761        H771   1.083       .  S
C762        C767   1.485       .  S
C762        C763   1.415       .  A
C763        C768   1.517       .  S
C763        C764   1.408       .  A
C764        C765   1.401       .  A
C764        H769   1.081       .  S
C765        C766   1.417       .  A
C766        C770   1.512       .  S
C767        C772   1.416       .  A
C767        C776   1.401       .  A
C768        F784   1.382       .  S
C768        F785   1.382       .  S
C768        F786   1.385       .  S
C770        F781   1.382       .  S
C770        F782   1.385       .  S
C770        F783   1.381       .  S
C772        C777   1.520       .  S
C772        C773   1.406       .  A
C773        C774   1.403       .  A
C773        H778   1.083       .  S
C774        C775   1.422       .  A
C775        C779   1.518       .  S
C775        C776   1.409       .  A
C776        H780   1.083       .  S
C777        F790   1.385       .  S
C777        F791   1.382       .  S
C777        F792   1.382       .  S
C779        F787   1.382       .  S
C779        F788   1.383       .  S
C779        F789   1.385       .  S
C793        C794   1.402       .  A
C793        C798   1.407       .  A
C793        H803   1.083       .  S
C794        C799   1.492       .  S
C794        C795   1.419       .  A
C795        C800   1.519       .  S
C795        C796   1.411       .  A
C796        C797   1.404       .  A
C796        H801   1.083       .  S
C797        C798   1.415       .  A
C798        C802   1.511       .  S
C799        C804   1.414       .  A
C799        C808   1.398       .  A
C800        F816   1.382       .  S
C800        F817   1.382       .  S
C800        F818   1.384       .  S
C802        F813   1.383       .  S
C802        F814   1.385       .  S
C802        F815   1.378       .  S
C804        C809   1.518       .  S
C804        C805   1.411       .  A
C805        C806   1.412       .  A
C805        H810   1.081       .  S
C806        C807   1.433       .  A
C807        C811   1.524       .  S
C807        C808   1.407       .  A
C808        H812   1.083       .  S
C809        F822   1.385       .  S
C809        F823   1.381       .  S
C809        F824   1.382       .  S
C811        F819   1.385       .  S
C811        F820   1.383       .  S
C811        F821   1.383       .  S
C825        C826   1.393       .  A
C825        C830   1.403       .  A
C825        H835   1.085       .  S
C826        C831   1.478       .  S
C826        C827   1.408       .  A
C827        C832   1.522       .  S
C827        C828   1.406       .  A
C828        C829   1.418       .  A
C828        H833   1.077       .  S
C829        C830   1.434       .  A
C830        C834   1.520       .  S
C831        C836   1.412       .  A
C831        C840   1.398       .  A
C832        F848   1.382       .  S
C832        F849   1.383       .  S
C832        F850   1.384       .  S
C834        F845   1.383       .  S
C834        F846   1.385       .  S
C834        F847   1.372       .  S
C836        C841   1.518       .  S
C836        C837   1.404       .  A
C837        C838   1.406       .  A
C837        H842   1.083       .  S
C838        C839   1.425       .  A
C839        C843   1.520       .  S
C839        C840   1.403       .  A
C840        H844   1.083       .  S
C841        F854   1.384       .  S
C841        F855   1.382       .  S
C841        F856   1.382       .  S
C843        F851   1.385       .  S
C843        F852   1.380       .  S
C843        F853   1.383       .  S
C857        C858   1.397       .  A
C857        C862   1.410       .  A
C857        H867   1.084       .  S
C858        C863   1.494       .  S
C858        C859   1.413       .  A
C859        C864   1.522       .  S
C859        C860   1.408       .  A
C860        C861   1.416       .  A
C860        H865   1.075       .  S
C861        C862   1.437       .  A
C862        C866   1.526       .  S
C863        C868   1.416       .  A
C863        C872   1.398       .  A
C864        F880   1.382       .  S
C864        F881   1.383       .  S
C864        F882   1.385       .  S
C866        F877   1.385       .  S
C866        F878   1.382       .  S
C866        F879   1.377       .  S
C868        C873   1.522       .  S
C868        C869   1.409       .  A
C869        C870   1.413       .  A
C869        H874   1.082       .  S
C870        C871   1.433       .  A
C871        C875   1.523       .  S
C871        C872   1.411       .  A
C872        H876   1.083       .  S
C873        F886   1.385       .  S
C873        F887   1.382       .  S
C873        F888   1.383       .  S
C875        F883   1.379       .  S
C875        F884   1.381       .  S
C875        F885   1.384       .  S
C889        C890   1.401       .  A
C889        C894   1.406       .  A
C889        H899   1.083       .  S
C890        C895   1.492       .  S
C890        C891   1.418       .  A
C891        C896   1.518       .  S
C891        C892   1.413       .  A
C892        C893   1.406       .  A
C892        H897   1.082       .  S
C893        C894   1.419       .  A
C894        C898   1.519       .  S
C895        C900   1.419       .  A
C895        C904   1.403       .  A
C896        F912   1.382       .  S
C896        F913   1.383       .  S
C896        F914   1.385       .  S
C898        F909   1.380       .  S
C898        F910   1.383       .  S
C898        F911   1.385       .  S
C900        C905   1.519       .  S
C900        C901   1.410       .  A
C901        C902   1.403       .  A
C901        H906   1.083       .  S
C902        C903   1.420       .  A
C903        C907   1.520       .  S
C903        C904   1.408       .  A
C904        H908   1.083       .  S
C905        F918   1.385       .  S
C905        F919   1.381       .  S
C905        F920   1.382       .  S
C907        F915   1.385       .  S
C907        F916   1.381       .  S
C907        F917   1.384       .  S
C921        C922   1.400       .  A
C921        C926   1.407       .  A
C921        H931   1.083       .  S
C922        C927   1.487       .  S
C922        C923   1.420       .  A
C923        C928   1.520       .  S
C923        C924   1.410       .  A
C924        C925   1.402       .  A
C924        H929   1.083       .  S
C925        C926   1.416       .  A
C926        C930   1.515       .  S
C927        C932   1.416       .  A
C927        C936   1.400       .  A
C928        F944   1.383       .  S
C928        F945   1.383       .  S
C928        F946   1.385       .  S
C930        F941   1.384       .  S
C930        F942   1.382       .  S
C930        F943   1.382       .  S
C932        C937   1.517       .  S
C932        C933   1.409       .  A
C933        C934   1.404       .  A
C933        H938   1.083       .  S
C934        C935   1.416       .  A
C935        C939   1.513       .  S
C935        C936   1.405       .  A
C936        H940   1.083       .  S
C937        F950   1.385       .  S
C937        F951   1.383       .  S
C937        F952   1.383       .  S
C939        F947   1.381       .  S
C939        F948   1.382       .  S
C939        F949   1.385       .  S
C953        C954   1.401       .  A
C953        C958   1.410       .  A
C953        H963   1.083       .  S
C954        C959   1.502       .  S
C954        C955   1.419       .  A
C955        C960   1.518       .  S
C955        C956   1.419       .  A
C956        C957   1.411       .  A
C956        H961   1.083       .  S
C957        C958   1.425       .  A
C958        C962   1.519       .  S
C959        C964   1.420       .  A
C959        C968   1.403       .  A
C960        F976   1.382       .  S
C960        F977   1.382       .  S
C960        F978   1.384       .  S
C962        F973   1.385       .  S
C962        F974   1.382       .  S
C962        F975   1.384       .  S
C964        C969   1.519       .  S
C964        C965   1.416       .  A
C965        C966   1.405       .  A
C965        H970   1.080       .  S
C966        C967   1.420       .  A
C967        C971   1.519       .  S
C967        C968   1.411       .  A
C968        H972   1.083       .  S
C969        F982   1.384       .  S
C969        F983   1.382       .  S
C969        F984   1.382       .  S
C971        F979   1.381       .  S
C971        F980   1.382       .  S
C971        F981   1.384       .  S
C985        C986   1.397       .  A
C985        C990   1.408       .  A
C985        H995   1.083       .  S
C986        C991   1.479       .  S
C986        C987   1.411       .  A
C987        C992   1.520       .  S
C987        C988   1.403       .  A
C988        C989   1.408       .  A
C988        H993   1.081       .  S
C989        C990   1.428       .  A
C990        C994   1.519       .  S
C991        C996   1.412       .  A
C991       C1000   1.398       .  A
C992       F1008   1.382       .  S
C992       F1009   1.380       .  S
C992       F1010   1.385       .  S
C994       F1005   1.385       .  S
C994       F1006   1.378       .  S
C994       F1007   1.374       .  S
C996       C1001   1.519       .  S
C996        C997   1.406       .  A
C997        C998   1.408       .  A
C997       H1002   1.082       .  S
C998        C999   1.426       .  A
C999       C1003   1.520       .  S
C999       C1000   1.405       .  A
C1000      H1004   1.084       .  S
C1001      F1014   1.384       .  S
C1001      F1015   1.382       .  S
C1001      F1016   1.381       .  S
C1003      F1011   1.385       .  S
C1003      F1012   1.383       .  S
C1003      F1013   1.382       .  S
C1017      C1018   1.397       .  A
C1017      C1022   1.409       .  A
C1017      H1027   1.085       .  S
C1018      C1023   1.489       .  S
C1018      C1019   1.410       .  A
C1019      C1024   1.522       .  S
C1019      C1020   1.408       .  A
C1020      C1021   1.417       .  A
C1020      H1025   1.075       .  S
C1021      C1022   1.436       .  A
C1022      C1026   1.524       .  S
C1023      C1028   1.414       .  A
C1023      C1032   1.402       .  A
C1024      F1040   1.382       .  S
C1024      F1041   1.381       .  S
C1024      F1042   1.385       .  S
C1026      F1037   1.384       .  S
C1026      F1038   1.384       .  S
C1026      F1039   1.376       .  S
C1028      C1033   1.521       .  S
C1028      C1029   1.408       .  A
C1029      C1030   1.407       .  A
C1029      H1034   1.079       .  S
C1030      C1031   1.424       .  A
C1031      C1035   1.519       .  S
C1031      C1032   1.412       .  A
C1032      H1036   1.083       .  S
C1033      F1046   1.384       .  S
C1033      F1047   1.382       .  S
C1033      F1048   1.382       .  S
C1035      F1043   1.382       .  S
C1035      F1044   1.381       .  S
C1035      F1045   1.385       .  S
C1049      C1050   1.403       .  A
C1049      C1054   1.407       .  A
C1049      H1059   1.085       .  S
C1050      C1055   1.488       .  S
C1050      C1051   1.417       .  A
C1051      C1056   1.520       .  S
C1051      C1052   1.409       .  A
C1052      C1053   1.404       .  A
C1052      H1057   1.084       .  S
C1053      C1054   1.420       .  A
C1054      C1058   1.520       .  S
C1055      C1060   1.414       .  A
C1055      C1064   1.401       .  A
C1056      F1072   1.382       .  S
C1056      F1073   1.382       .  S
C1056      F1074   1.384       .  S
C1058      F1069   1.383       .  S
C1058      F1070   1.383       .  S
C1058      F1071   1.382       .  S
C1060      C1065   1.519       .  S
C1060      C1061   1.407       .  A
C1061      C1062   1.407       .  A
C1061      H1066   1.082       .  S
C1062      C1063   1.423       .  A
C1063      C1067   1.518       .  S
C1063      C1064   1.410       .  A
C1064      H1068   1.083       .  S
C1065      F1078   1.385       .  S
C1065      F1079   1.382       .  S
C1065      F1080   1.382       .  S
C1067      F1075   1.380       .  S
C1067      F1076   1.379       .  S
C1067      F1077   1.385       .  S
C1081      C1082   1.404       .  A
C1081      C1086   1.409       .  A
C1081      H1091   1.083       .  S
C1082      C1087   1.488       .  S
C1082      C1083   1.417       .  A
C1083      C1088   1.519       .  S
C1083      C1084   1.408       .  A
C1084      C1085   1.402       .  A
C1084      H1089   1.083       .  S
C1085      C1086   1.415       .  A
C1086      C1090   1.516       .  S
C1087      C1092   1.411       .  A
C1087      C1096   1.396       .  A
C1088      F1104   1.382       .  S
C1088      F1105   1.382       .  S
C1088      F1106   1.384       .  S
C1090      F1101   1.384       .  S
C1090      F1102   1.382       .  S
C1090      F1103   1.382       .  S
C1092      C1097   1.520       .  S
C1092      C1093   1.409       .  A
C1093      C1094   1.413       .  A
C1093      H1098   1.080       .  S
C1094      C1095   1.433       .  A
C1095      C1099   1.520       .  S
C1095      C1096   1.409       .  A
C1096      H1100   1.084       .  S
C1097      F1110   1.384       .  S
C1097      F1111   1.383       .  S
C1097      F1112   1.382       .  S
C1099      F1107   1.385       .  S
C1099      F1108   1.375       .  S
C1099      F1109   1.380       .  S
C1113      C1114   1.400       .  A
C1113      C1118   1.406       .  A
C1113      H1123   1.083       .  S
C1114      C1119   1.487       .  S
C1114      C1115   1.417       .  A
C1115      C1120   1.518       .  S
C1115      C1116   1.410       .  A
C1116      C1117   1.402       .  A
C1116      H1121   1.083       .  S
C1117      C1118   1.418       .  A
C1118      C1122   1.513       .  S
C1119      C1124   1.418       .  A
C1119      C1128   1.402       .  A
C1120      F1136   1.382       .  S
C1120      F1137   1.382       .  S
C1120      F1138   1.384       .  S
C1122      F1133   1.380       .  S
C1122      F1134   1.385       .  S
C1122      F1135   1.381       .  S
C1124      C1129   1.519       .  S
C1124      C1125   1.408       .  A
C1125      C1126   1.402       .  A
C1125      H1130   1.084       .  S
C1126      C1127   1.416       .  A
C1127      C1131   1.516       .  S
C1127      C1128   1.408       .  A
C1128      H1132   1.083       .  S
C1129      F1142   1.385       .  S
C1129      F1143   1.383       .  S
C1129      F1144   1.382       .  S
C1131      F1139   1.382       .  S
C1131      F1140   1.381       .  S
C1131      F1141   1.385       .  S
C1145      C1146   1.403       .  A
C1145      C1150   1.410       .  A
C1145      H1155   1.083       .  S
C1146      C1151   1.490       .  S
C1146      C1147   1.417       .  A
C1147      C1152   1.519       .  S
C1147      C1148   1.407       .  A
C1148      C1149   1.403       .  A
C1148      H1153   1.083       .  S
C1149      C1150   1.418       .  A
C1150      C1154   1.517       .  S
C1151      C1156   1.417       .  A
C1151      C1160   1.402       .  A
C1152      F1168   1.382       .  S
C1152      F1169   1.383       .  S
C1152      F1170   1.385       .  S
C1154      F1165   1.384       .  S
C1154      F1166   1.382       .  S
C1154      F1167   1.382       .  S
C1156      C1161   1.521       .  S
C1156      C1157   1.407       .  A
C1157      C1158   1.406       .  A
C1157      H1162   1.083       .  S
C1158      C1159   1.422       .  A
C1159      C1163   1.518       .  S
C1159      C1160   1.411       .  A
C1160      H1164   1.083       .  S
C1161      F1174   1.385       .  S
C1161      F1175   1.382       .  S
C1161      F1176   1.383       .  S
C1163      F1171   1.382       .  S
C1163      F1172   1.383       .  S
C1163      F1173   1.385       .  S
C1177      C1178   1.403       .  A
C1177      C1182   1.410       .  A
C1177      H1187   1.083       .  S
C1178      C1183   1.491       .  S
C1178      C1179   1.417       .  A
C1179      C1184   1.522       .  S
C1179      C1180   1.406       .  A
C1180      C1181   1.408       .  A
C1180      H1185   1.082       .  S
C1181      C1182   1.423       .  A
C1182      C1186   1.518       .  S
C1183      C1188   1.413       .  A
C1183      C1192   1.397       .  A
C1184      F1200   1.381       .  S
C1184      F1201   1.382       .  S
C1184      F1202   1.385       .  S
C1186      F1197   1.385       .  S
C1186      F1198   1.382       .  S
C1186      F1199   1.383       .  S
C1188      C1193   1.519       .  S
C1188      C1189   1.410       .  A
C1189      C1190   1.411       .  A
C1189      H1194   1.081       .  S
C1190      C1191   1.434       .  A
C1191      C1195   1.523       .  S
C1191      C1192   1.408       .  A
C1192      H1196   1.084       .  S
C1193      F1206   1.384       .  S
C1193      F1207   1.381       .  S
C1193      F1208   1.383       .  S
C1195      F1203   1.382       .  S
C1195      F1204   1.379       .  S
C1195      F1205   1.385       .  S
C1209      C1210   1.402       .  A
C1209      C1214   1.409       .  A
C1209      H1219   1.083       .  S
C1210      C1215   1.489       .  S
C1210      C1211   1.417       .  A
C1211      C1216   1.519       .  S
C1211      C1212   1.410       .  A
C1212      C1213   1.405       .  A
C1212      H1217   1.083       .  S
C1213      C1214   1.420       .  A
C1214      C1218   1.519       .  S
C1215      C1220   1.411       .  A
C1215      C1224   1.398       .  A
C1216      F1232   1.382       .  S
C1216      F1233   1.381       .  S
C1216      F1234   1.384       .  S
C1218      F1229   1.384       .  S
C1218      F1230   1.383       .  S
C1218      F1231   1.384       .  S
C1220      C1225   1.521       .  S
C1220      C1221   1.408       .  A
C1221      C1222   1.417       .  A
C1221      H1226   1.077       .  S
C1222      C1223   1.435       .  A
C1223      C1227   1.523       .  S
C1223      C1224   1.410       .  A
C1224      H1228   1.085       .  S
C1225      F1238   1.385       .  S
C1225      F1239   1.382       .  S
C1225      F1240   1.381       .  S
C1227      F1235   1.383       .  S
C1227      F1236   1.375       .  S
C1227      F1237   1.384       .  S
C1241      C1242   1.401       .  A
C1241      C1246   1.412       .  A
C1241      H1251   1.083       .  S
C1242      C1247   1.490       .  S
C1242      C1243   1.414       .  A
C1243      C1248   1.520       .  S
C1243      C1244   1.407       .  A
C1244      C1245   1.409       .  A
C1244      H1249   1.082       .  S
C1245      C1246   1.424       .  A
C1246      C1250   1.517       .  S
C1247      C1252   1.414       .  A
C1247      C1256   1.398       .  A
C1248      F1264   1.382       .  S
C1248      F1265   1.381       .  S
C1248      F1266   1.385       .  S
C1250      F1261   1.385       .  S
C1250      F1262   1.380       .  S
C1250      F1263   1.377       .  S
C1252      C1257   1.519       .  S
C1252      C1253   1.411       .  A
C1253      C1254   1.411       .  A
C1253      H1258   1.082       .  S
C1254      C1255   1.429       .  A
C1255      C1259   1.520       .  S
C1255      C1256   1.409       .  A
C1256      H1260   1.083       .  S
C1257      F1270   1.385       .  S
C1257      F1271   1.383       .  S
C1257      F1272   1.381       .  S
C1259      F1267   1.383       .  S
C1259      F1268   1.382       .  S
C1259      F1269   1.385       .  S
C1273      C1274   1.398       .  A
C1273      C1278   1.404       .  A
C1273      H1283   1.083       .  S
C1274      C1279   1.485       .  S
C1274      C1275   1.417       .  A
C1275      C1280   1.519       .  S
C1275      C1276   1.409       .  A
C1276      C1277   1.404       .  A
C1276      H1281   1.083       .  S
C1277      C1278   1.422       .  A
C1278      C1282   1.519       .  S
C1279      C1284   1.416       .  A
C1279      C1288   1.400       .  A
C1280      F1296   1.382       .  S
C1280      F1297   1.382       .  S
C1280      F1298   1.384       .  S
C1282      F1293   1.385       .  S
C1282      F1294   1.382       .  S
C1282      F1295   1.384       .  S
C1284      C1289   1.518       .  S
C1284      C1285   1.407       .  A
C1285      C1286   1.400       .  A
C1285      H1290   1.083       .  S
C1286      C1287   1.422       .  A
C1287      C1291   1.523       .  S
C1287      C1288   1.405       .  A
C1288      H1292   1.083       .  S
C1289      F1302   1.385       .  S
C1289      F1303   1.382       .  S
C1289      F1304   1.383       .  S
C1291      F1299   1.385       .  S
C1291      F1300   1.380       .  S
C1291      F1301   1.381       .  S
C1305      C1306   1.399       .  A
C1305      C1310   1.404       .  A
C1305      H1315   1.083       .  S
C1306      C1311   1.479       .  S
C1306      C1307   1.414       .  A
C1307      C1312   1.520       .  S
C1307      C1308   1.405       .  A
C1308      C1309   1.405       .  A
C1308      H1313   1.081       .  S
C1309      C1310   1.421       .  A
C1310      C1314   1.519       .  S
C1311      C1316   1.408       .  A
C1311      C1320   1.393       .  A
C1312      F1328   1.382       .  S
C1312      F1329   1.382       .  S
C1312      F1330   1.385       .  S
C1314      F1325   1.385       .  S
C1314      F1326   1.382       .  S
C1314      F1327   1.383       .  S
C1316      C1321   1.523       .  S
C1316      C1317   1.406       .  A
C1317      C1318   1.418       .  A
C1317      H1322   1.073       .  S
C1318      C1319   1.438       .  A
C1319      C1323   1.528       .  S
C1319      C1320   1.405       .  A
C1320      H1324   1.085       .  S
C1321      F1334   1.384       .  S
C1321      F1335   1.382       .  S
C1321      F1336   1.382       .  S
C1323      F1331   1.383       .  S
C1323      F1332   1.375       .  S
C1323      F1333   1.384       .  S
C1337      C1338   1.402       .  A
C1337      C1342   1.411       .  A
C1337      H1347   1.083       .  S
C1338      C1343   1.488       .  S
C1338      C1339   1.416       .  A
C1339      C1344   1.520       .  S
C1339      C1340   1.406       .  A
C1340      C1341   1.405       .  A
C1340      H1345   1.082       .  S
C1341      C1342   1.419       .  A
C1342      C1346   1.516       .  S
C1343      C1348   1.415       .  A
C1343      C1352   1.404       .  A
C1344      F1360   1.382       .  S
C1344      F1361   1.383       .  S
C1344      F1362   1.384       .  S
C1346      F1357   1.384       .  S
C1346      F1358   1.380       .  S
C1346      F1359   1.382       .  S
C1348      C1353   1.522       .  S
C1348      C1349   1.405       .  A
C1349      C1350   1.408       .  A
C1349      H1354   1.083       .  S
C1350      C1351   1.421       .  A
C1351      C1355   1.519       .  S
C1351      C1352   1.412       .  A
C1352      H1356   1.083       .  S
C1353      F1366   1.384       .  S
C1353      F1367   1.382       .  S
C1353      F1368   1.383       .  S
C1355      F1363   1.384       .  S
C1355      F1364   1.382       .  S
C1355      F1365   1.384       .  S
