geometry optimzed in LAMMPS
_audit_creation_date              2020-11-30 
_audit_creation_method            'lammps2cif' 
_symmetry_space_group_name_H-M    'P1' 
_symmetry_Int_Tables_number       1 
_symmetry_cell_setting            triclinic 
loop_ 
_symmetry_equiv_pos_as_xyz 
  x,y,z 
_cell_length_a                    36.20898836 
_cell_length_b                    36.66516538235997 
_cell_length_c                    35.49966460367199 
_cell_angle_alpha                 90.01293111249245 
_cell_angle_beta                  89.99640850520954 
_cell_angle_gamma                 90.02052403273768 
loop_ 
_atom_site_label 
_atom_site_type_symbol 
_atom_site_fract_x 
_atom_site_fract_y 
_atom_site_fract_z 
_atom_site_charge 
C1          C  0.36553774  0.37025888  0.12766948     0.85700
C2          C  0.34045243  0.39605762  0.15039765    -0.54500
C3          C  0.31655029  0.37808755  0.17340074     0.08700
C4          C  0.31996267  0.33651456  0.17160810     0.19600
C5          C  0.38491098  0.34616264  0.15722734    -0.55200
C6          C  0.36060579  0.32871854  0.18040794     0.08800
C7          C  0.33931074  0.34429153  0.10650062    -0.54800
C8          C  0.31563070  0.32629759  0.12994844     0.09300
H9          H  0.34203668  0.42561337  0.14909339     0.13900
H10         H  0.30035512  0.32196057  0.19048711    -0.00400
H11         H  0.41467558  0.34351923  0.15986550     0.14200
H12         H  0.34107756  0.33876768  0.07649819     0.13900
C13         C  0.36208082  0.17660285  0.34293586     0.85700
C14         C  0.33719373  0.15159691  0.31905479    -0.54500
C15         C  0.31316455  0.17046590  0.29694455     0.08700
C16         C  0.31631077  0.21191947  0.30062667     0.19600
C17         C  0.38129186  0.20189596  0.31460752    -0.55200
C18         C  0.35700327  0.22057061  0.29263888     0.08800
C19         C  0.33557099  0.20148367  0.36529980    -0.54800
C20         C  0.31139599  0.21983362  0.34265507     0.09300
H21         H  0.33861089  0.12200691  0.31938239     0.13900
H22         H  0.29681177  0.22718568  0.28225275    -0.00400
H23         H  0.41099292  0.20587787  0.31316886     0.14200
H24         H  0.33621896  0.20466845  0.39570510     0.13900
C25         C  0.16228085  0.16933329  0.13523507     0.85700
C26         C  0.19051355  0.19148130  0.11201569    -0.54500
C27         C  0.21446227  0.21091418  0.13388756     0.08700
C28         C  0.20774219  0.20676123  0.17619807     0.19600
C29         C  0.18544383  0.14577401  0.16231901    -0.55200
C30         C  0.20917958  0.16580005  0.18374229     0.08800
C31         C  0.14298109  0.19781783  0.16063420    -0.54800
C32         C  0.16731359  0.21761108  0.18191406     0.09300
H33         H  0.19134988  0.19189360  0.08143758     0.13900
H34         H  0.22723812  0.22278378  0.19390651    -0.00400
H35         H  0.18306091  0.11632989  0.16459355     0.14200
H36         H  0.11345261  0.20295938  0.16044877     0.13900
C37         C  0.16505035  0.38244509  0.33366455     0.85700
C38         C  0.19101178  0.35833307  0.35723118    -0.54500
C39         C  0.21483775  0.33838730  0.33581138     0.08700
C40         C  0.21081316  0.34471512  0.29335156     0.19600
C41         C  0.19041919  0.40608228  0.30878891    -0.55200
C42         C  0.21442216  0.38597406  0.28773372     0.08800
C43         C  0.14584586  0.35576530  0.30619832    -0.54800
C44         C  0.17022125  0.33613288  0.28485696     0.09300
H45         H  0.18907119  0.35547011  0.38761835     0.13900
H46         H  0.23057334  0.32847936  0.27618939    -0.00400
H47         H  0.18895368  0.43563581  0.30730646     0.14200
H48         H  0.11609688  0.35294966  0.30365748     0.13900
C49         C  0.36392936  0.17811099  0.62477330     0.85700
C50         C  0.34163643  0.20337040  0.59863210    -0.54500
C51         C  0.31891525  0.22638003  0.61787566     0.08700
C52         C  0.32053102  0.22196390  0.66070229     0.19600
C53         C  0.38441470  0.20341822  0.65224150    -0.55200
C54         C  0.36133159  0.22615978  0.67135330     0.08800
C55         C  0.33492089  0.15825256  0.64918464    -0.54800
C56         C  0.31195565  0.18163246  0.66781994     0.09300
H57         H  0.34306072  0.20259286  0.56808441     0.13900
H58         H  0.30206299  0.24100759  0.67620652    -0.00400
H59         H  0.41376924  0.20148325  0.65821056     0.14200
H60         H  0.33279422  0.12879618  0.65151911     0.13900
C61         C  0.15973335  0.17186539  0.83333268     0.85700
C62         C  0.13772507  0.19932564  0.80895394    -0.54500
C63         C  0.15992085  0.22352781  0.79030093     0.08700
C64         C  0.20114915  0.21767932  0.79739617     0.19600
C65         C  0.18667085  0.15339864  0.80563417    -0.55200
C66         C  0.20806444  0.17782716  0.78647845     0.08800
C67         C  0.18410659  0.19533211  0.85933918    -0.54800
C68         C  0.20574530  0.21932350  0.84014707     0.09300
H69         H  0.10782717  0.19949069  0.80660330     0.13900
H70         H  0.21918597  0.23724109  0.78203860    -0.00400
H71         H  0.18710823  0.12428617  0.80001871     0.14200
H72         H  0.18428378  0.19316063  0.88985199     0.13900
C73         C  0.16288267  0.37577442  0.62795940     0.85700
C74         C  0.14126281  0.34908598  0.65322057    -0.54500
C75         C  0.16350728  0.32522492  0.67204596     0.08700
C76         C  0.20473287  0.32997641  0.66339934     0.19600
C77         C  0.19087598  0.39429732  0.65459658    -0.55200
C78         C  0.21303848  0.36993032  0.67294460     0.08800
C79         C  0.18622009  0.35172844  0.60157492    -0.54800
C80         C  0.20810416  0.32772210  0.62046726     0.09300
H81         H  0.11163173  0.35054253  0.65771621     0.13900
H82         H  0.22262586  0.31021088  0.67862270    -0.00400
H83         H  0.19315333  0.42360902  0.65830788     0.14200
H84         H  0.18602054  0.35395350  0.57106843     0.13900
C85         C  0.36300890  0.36952463  0.84075615     0.85700
C86         C  0.33668400  0.34661156  0.86530255    -0.54500
C87         C  0.31436741  0.32440436  0.84459432     0.08700
C88         C  0.32040992  0.32707237  0.80209609     0.19600
C89         C  0.38430768  0.34183938  0.81631889    -0.55200
C90         C  0.36154801  0.31944905  0.79624046     0.08800
C91         C  0.33793361  0.39017685  0.81287574    -0.54800
C92         C  0.31582145  0.36748518  0.79238568     0.09300
H93         H  0.33597550  0.34761160  0.89586796     0.13900
H94         H  0.30196076  0.30891913  0.78545209    -0.00400
H95         H  0.41422573  0.34034504  0.81474603     0.14200
H96         H  0.33903266  0.41945027  0.80834362     0.13900
N97         N  0.44201012  0.48084122  0.02845862    -0.06900
N98         N  0.41780153  0.45454315  0.03423646    -0.59000
N99         N  0.46817887  0.56454632  0.05484845    -0.06500
N100        N  0.46155355  0.59059539  0.07968802    -0.61100
N101        N  0.44263943  0.56453808  0.02847810    -0.06100
N102        N  0.41819645  0.59051189  0.03468995    -0.59000
N103        N  0.46760607  0.48056636  0.05477107    -0.05800
N104        N  0.46136296  0.45400793  0.07906101    -0.61500
C105        C  0.43052120  0.43791988  0.06554609     0.95300
C106        C  0.43056962  0.60666427  0.06639200     0.95100
N107        N  0.58084449  0.56294471  0.02789163    -0.07100
N108        N  0.60580655  0.58850520  0.03378977    -0.59600
N109        N  0.55465087  0.47971394  0.05505427    -0.05200
N110        N  0.56149202  0.45408278  0.08028700    -0.60800
N111        N  0.57996036  0.47933877  0.02845835    -0.07100
N112        N  0.60452180  0.45350721  0.03497195    -0.59800
N113        N  0.55549673  0.56353621  0.05445231    -0.04800
N114        N  0.56272278  0.58955726  0.07910778    -0.60900
Mn115      Mn  0.51144127  0.52214220  0.05606104     1.18400
C116        C  0.59391613  0.60494660  0.06552595     0.97400
C117        C  0.59239155  0.43781323  0.06706507     0.98100
N118        N  0.44208138  0.56446806  0.94019961    -0.07100
N119        N  0.41709260  0.58982328  0.93354164    -0.63400
N120        N  0.46649359  0.48076435  0.91354115    -0.05900
N121        N  0.45895517  0.45557431  0.88809880    -0.64100
N122        N  0.44107797  0.48105188  0.94001824    -0.06600
N123        N  0.41568016  0.45609492  0.93321097    -0.63700
N124        N  0.46746160  0.56437444  0.91366451    -0.05500
N125        N  0.46020544  0.58972096  0.88827894    -0.64400
Mn126      Mn  0.44097436  0.52271718  0.98437745     1.10700
C127        C  0.42901380  0.60550409  0.90140876     0.98600
C128        C  0.42748052  0.44030079  0.90105289     0.98700
N129        N  0.57913988  0.47917280  0.93988918    -0.06600
N130        N  0.60366267  0.45340046  0.93319563    -0.62000
N131        N  0.55483564  0.56297805  0.91327617    -0.05900
N132        N  0.56202622  0.58838252  0.88797722    -0.58700
N133        N  0.58056783  0.56253285  0.93944845    -0.07200
N134        N  0.60580735  0.58762708  0.93258153    -0.61600
N135        N  0.55355634  0.47947341  0.91355636    -0.06200
N136        N  0.56015520  0.45384221  0.88831704    -0.58700
Mn137      Mn  0.58110478  0.52096290  0.98393289     1.20200
Mn138      Mn  0.51060490  0.52193729  0.91237302     1.10100
Cl139      Cl  0.51104624  0.52197466  0.98419123    -0.86700
C140        C  0.59117256  0.43770229  0.90129731     0.95600
C141        C  0.59359690  0.60362556  0.90071226     0.95400
C142        C  0.36585668  0.67714970  0.12673885     0.85700
C143        C  0.34056487  0.70262731  0.10368288    -0.54500
C144        C  0.31812003  0.72350077  0.12584912     0.08700
C145        C  0.32304193  0.71710067  0.16809468     0.19600
C146        C  0.38700125  0.70231544  0.15386626    -0.55200
C147        C  0.36418671  0.72323462  0.17536813     0.08800
C148        C  0.33959938  0.65483252  0.15201597    -0.54800
C149        C  0.31720935  0.67616890  0.17366759     0.09300
H150        H  0.34035822  0.70395888  0.07312551     0.13900
H151        H  0.30475466  0.73428601  0.18596957    -0.00400
H152        H  0.41691072  0.70356393  0.15583160     0.14200
H153        H  0.33918385  0.62523475  0.15314198     0.13900
C154        C  0.16163435  0.87716433  0.13210070     0.85700
C155        C  0.14023873  0.85076188  0.15797982    -0.54500
C156        C  0.16286364  0.82932738  0.17930962     0.08700
C157        C  0.20406429  0.83615118  0.17280399     0.19600
C158        C  0.18710963  0.89887914  0.15867083    -0.55200
C159        C  0.20926394  0.87699232  0.17999087     0.08800
C160        C  0.18755823  0.85278367  0.10869912    -0.54800
C161        C  0.20977171  0.83133234  0.13036197     0.09300
H162        H  0.11031796  0.84917764  0.15930626     0.13900
H163        H  0.22227790  0.81853547  0.19028627    -0.00400
H164        H  0.18707280  0.92841661  0.16098559     0.14200
H165        H  0.18805647  0.85226325  0.07811363     0.13900
C166        C  0.16164289  0.66984333  0.33455132     0.85700
C167        C  0.14029286  0.69697007  0.30949866    -0.54500
C168        C  0.16299528  0.71940194  0.28935003     0.08700
C169        C  0.20416221  0.71270924  0.29604504     0.19600
C170        C  0.18766578  0.64939344  0.30744909    -0.55200
C171        C  0.20995012  0.67224725  0.28735218     0.08800
C172        C  0.18698348  0.69358326  0.35924791    -0.54800
C173        C  0.20918683  0.71599540  0.33868450     0.09300
H174        H  0.11038456  0.69799958  0.30749186     0.13900
H175        H  0.22243894  0.73112834  0.27952020    -0.00400
H176        H  0.18831945  0.61993643  0.30436332     0.14200
H177        H  0.18720665  0.69291805  0.38983934     0.13900
C178        C  0.36313777  0.87078598  0.34111623     0.85700
C179        C  0.33802220  0.84506742  0.36385299    -0.54500
C180        C  0.31569942  0.82437224  0.34150127     0.08700
C181        C  0.32046363  0.83124954  0.29924014     0.19600
C182        C  0.38439088  0.84603185  0.31374969    -0.55200
C183        C  0.36168601  0.82541455  0.29181791     0.08800
C184        C  0.33692041  0.89336403  0.31615778    -0.54800
C185        C  0.31454969  0.87229126  0.29427537     0.09300
H186        H  0.33800694  0.84323957  0.39438567     0.13900
H187        H  0.30220245  0.81421417  0.28118084    -0.00400
H188        H  0.41429608  0.84532151  0.31144559     0.14200
H189        H  0.33623301  0.92297254  0.31568487     0.13900
N190        N  0.44131573  0.06629395  0.43949926    -0.06900
N191        N  0.41710757  0.09264881  0.43436581    -0.59000
N192        N  0.46577629  0.98264722  0.41204651    -0.06500
N193        N  0.45846228  0.95666514  0.38739242    -0.61100
N194        N  0.44076441  0.98285815  0.43894976    -0.06100
N195        N  0.41595395  0.95711865  0.43327636    -0.59000
N196        N  0.46625243  0.06642979  0.41254845    -0.05800
N197        N  0.45948918  0.09294842  0.38836739    -0.61500
C198        C  0.42909379  0.10915831  0.40274191     0.95300
C199        C  0.42762689  0.94090767  0.40135660     0.95100
N200        N  0.57898015  0.98243926  0.43589139    -0.07100
N201        N  0.60411920  0.95742376  0.42855241    -0.59600
N202        N  0.55322185  0.06624385  0.41084742    -0.05200
N203        N  0.55993192  0.09246632  0.38625147    -0.60800
N204        N  0.57889178  0.06575666  0.43705906    -0.07100
N205        N  0.60352188  0.09156195  0.43103967    -0.59800
N206        N  0.55320952  0.98256060  0.40976260    -0.04800
N207        N  0.56030493  0.95752889  0.38397299    -0.60900
Mn208      Mn  0.50951865  0.02441995  0.40996041     1.18400
C209        C  0.59188265  0.94198976  0.39642538     0.97400
C210        C  0.59108735  0.10814750  0.39964317     0.98100
N211        N  0.44185474  0.98257534  0.52713970    -0.07100
N212        N  0.41690119  0.95728436  0.53413134    -0.63400
N213        N  0.46786349  0.06568720  0.55367562    -0.05900
N214        N  0.46067010  0.09061871  0.57952648    -0.64100
N215        N  0.44205820  0.06572843  0.52759342    -0.06600
N216        N  0.41682634  0.09062910  0.53497801    -0.63700
N217        N  0.46779924  0.98231034  0.55306238    -0.05500
N218        N  0.46111141  0.95679004  0.57833639    -0.64400
Mn219      Mn  0.44052301  0.02435615  0.48321319     1.10700
C220        C  0.42961338  0.94130961  0.56577882     0.98600
C221        C  0.42903532  0.10605246  0.56711412     0.98700
N222        N  0.58017693  0.06497646  0.52492291    -0.06600
N223        N  0.60527024  0.09034806  0.53096390    -0.62000
N224        N  0.55470312  0.98161971  0.55131831    -0.05900
N225        N  0.56172593  0.95571811  0.57611978    -0.58700
N226        N  0.57975428  0.98152817  0.52446021    -0.07200
N227        N  0.60436876  0.95563152  0.53038453    -0.61600
N228        N  0.55508805  0.06525819  0.55171417    -0.06200
N229        N  0.56261447  0.09085313  0.57670404    -0.58700
Mn230      Mn  0.58039447  0.02359271  0.48059437     1.20200
Mn231      Mn  0.51144731  0.02376007  0.55363033     1.10100
Cl232      Cl  0.51046420  0.02394426  0.48182078    -0.86700
C233        C  0.59367581  0.10635841  0.56301279     0.95600
C234        C  0.59246017  0.93963583  0.56238418     0.95400
C235        C  0.65443368  0.36810719  0.83884091     0.85700
C236        C  0.68005026  0.39027977  0.81284229    -0.54500
C237        C  0.70188797  0.36882840  0.79076722     0.08700
C238        C  0.69612019  0.32788113  0.79664008     0.19600
C239        C  0.63254581  0.34287806  0.81245118    -0.55200
C240        C  0.65474053  0.32183613  0.79043697     0.08800
C241        C  0.68024181  0.34285488  0.86138855    -0.54800
C242        C  0.70205651  0.32180735  0.83885001     0.09300
H243        H  0.68084974  0.41987960  0.81195845     0.13900
H244        H  0.71398847  0.31058949  0.77844355    -0.00400
H245        H  0.60259195  0.34191307  0.81108062     0.14200
H246        H  0.68132158  0.34185842  0.89194227     0.13900
C247        C  0.85833210  0.37887310  0.63106147     0.85700
C248        C  0.83334898  0.35392724  0.60718170    -0.54500
C249        C  0.81211514  0.33117393  0.62848630     0.08700
C250        C  0.81773973  0.33534105  0.67097586     0.19600
C251        C  0.83196971  0.39895891  0.65810118    -0.55200
C252        C  0.81076909  0.37574604  0.67895976     0.08800
C253        C  0.88085248  0.35286285  0.65632885    -0.54800
C254        C  0.85918494  0.33009408  0.67722596     0.09300
H255        H  0.83230761  0.35440826  0.57660925     0.13900
H256        H  0.80026526  0.31668905  0.68811446    -0.00400
H257        H  0.83032614  0.42843104  0.66060725     0.14200
H258        H  0.91081032  0.35265454  0.65775656     0.13900
C259        C  0.65777800  0.17577565  0.62454735     0.85700
C260        C  0.68429246  0.15418144  0.65016902    -0.54500
C261        C  0.70548372  0.17616265  0.67240369     0.08700
C262        C  0.69819124  0.21692802  0.66703580     0.19600
C263        C  0.63514669  0.19992656  0.65130189    -0.55200
C264        C  0.65665164  0.22140565  0.67352516     0.08800
C265        C  0.68254971  0.20211978  0.60215839    -0.54800
C266        C  0.70370684  0.22365581  0.62485621     0.09300
H267        H  0.68607372  0.12462012  0.65073812     0.13900
H268        H  0.71549341  0.23465746  0.68535818    -0.00400
H269        H  0.60519245  0.19965337  0.65298497     0.14200
H270        H  0.68336496  0.20355214  0.57160846     0.13900
C271        C  0.86160573  0.17178522  0.83313147     0.85700
C272        C  0.83564477  0.19573472  0.85694538    -0.54500
C273        C  0.81388378  0.21794733  0.83565394     0.08700
C274        C  0.81990738  0.21425589  0.79317859     0.19600
C275        C  0.83609811  0.15105021  0.80569721    -0.55200
C276        C  0.81429656  0.17370826  0.78480517     0.08800
C277        C  0.88346843  0.19868653  0.80819960    -0.54800
C278        C  0.86120127  0.22089596  0.78729037     0.09300
H279        H  0.83448767  0.19512169  0.88751263     0.13900
H280        H  0.80195678  0.23246802  0.77606426    -0.00400
H281        H  0.83541646  0.12155682  0.80298503     0.14200
H282        H  0.91341202  0.19981126  0.80693246     0.13900
C283        C  0.36539153  0.67484571  0.83849781     0.85700
C284        C  0.38823249  0.69929191  0.81214587    -0.54500
C285        C  0.36687319  0.72048145  0.78947132     0.08700
C286        C  0.32531259  0.71547906  0.79508913     0.19600
C287        C  0.33982448  0.70108166  0.86028167    -0.55200
C288        C  0.31885331  0.72236196  0.83705344     0.08800
C289        C  0.33955094  0.65293712  0.81240813    -0.54800
C290        C  0.31855443  0.67465501  0.78973961     0.09300
H291        H  0.41821908  0.69972420  0.81135910     0.13900
H292        H  0.30817061  0.73297320  0.77638445    -0.00400
H293        H  0.33856662  0.70278638  0.89079063     0.14200
H294        H  0.33780190  0.62336630  0.81211490     0.13900
C295        C  0.36732748  0.87205983  0.62908193     0.85700
C296        C  0.38937342  0.84754579  0.65599545    -0.54500
C297        C  0.36728893  0.82682164  0.67844577     0.08700
C298        C  0.32585243  0.83249860  0.67209925     0.19600
C299        C  0.34180355  0.84614121  0.60706108    -0.55200
C300        C  0.32006665  0.82544270  0.62998907     0.08800
C301        C  0.34155014  0.89463783  0.65444774    -0.54800
C302        C  0.31985221  0.87356683  0.67699039     0.09300
H303        H  0.41933622  0.84632720  0.65691204     0.13900
H304        H  0.30804959  0.81545352  0.69060516    -0.00400
H305        H  0.34079839  0.84450330  0.57653255     0.14200
H306        H  0.34056919  0.92424765  0.65462121     0.13900
C307        C  0.16151919  0.67326127  0.63061274     0.85700
C308        C  0.18769030  0.69780015  0.60755861    -0.54500
C309        C  0.20920531  0.71966165  0.62962206     0.08700
C310        C  0.20272815  0.71505463  0.67191531     0.19600
C311        C  0.18683087  0.65209703  0.65778639    -0.55200
C312        C  0.20835775  0.67436191  0.67936484     0.08800
C313        C  0.13936790  0.69967259  0.65586053    -0.54800
C314        C  0.16137905  0.72154896  0.67744508     0.09300
H315        H  0.18906038  0.69790661  0.57700086     0.13900
H316        H  0.22047100  0.73295312  0.68962463    -0.00400
H317        H  0.18769926  0.62255237  0.65973779     0.14200
H318        H  0.10941385  0.70093232  0.65659757     0.13900
C319        C  0.16299351  0.87837703  0.83501164     0.85700
C320        C  0.18886319  0.85282710  0.85724168    -0.54500
C321        C  0.21040728  0.83163269  0.83449654     0.08700
C322        C  0.20411639  0.83782501  0.79236494     0.19600
C323        C  0.18856477  0.90037235  0.80876580    -0.55200
C324        C  0.21003263  0.87873212  0.78647348     0.08800
C325        C  0.14079609  0.85302909  0.80873617    -0.54800
C326        C  0.16272663  0.83184283  0.78640822     0.09300
H327        H  0.19012546  0.85170280  0.88778220     0.13900
H328        H  0.22178843  0.82043496  0.77406675    -0.00400
H329        H  0.18969378  0.92996079  0.80798811     0.14200
H330        H  0.11083635  0.85185825  0.80795820     0.13900
C331        C  0.65551409  0.86874452  0.33844905     0.85700
C332        C  0.63403707  0.84164473  0.31350907    -0.54500
C333        C  0.65660480  0.81875178  0.29387064     0.08700
C334        C  0.69779634  0.82532067  0.30057570     0.19600
C335        C  0.68082313  0.84518366  0.36352578    -0.55200
C336        C  0.70298464  0.82243667  0.34317919     0.08800
C337        C  0.68167598  0.88878821  0.31124099    -0.54800
C338        C  0.70360972  0.86563858  0.29121621     0.09300
H339        H  0.60414133  0.84102052  0.31113206     0.13900
H340        H  0.71609320  0.80681554  0.28417769    -0.00400
H341        H  0.68121900  0.84639626  0.39408491     0.14200
H342        H  0.68152771  0.91810086  0.30683423     0.13900
C343        C  0.86007128  0.67205618  0.33375028     0.85700
C344        C  0.83509632  0.69543971  0.35921526    -0.54500
C345        C  0.81372724  0.71931485  0.33955759     0.08700
C346        C  0.81916254  0.71768516  0.29691026     0.19600
C347        C  0.83367034  0.65344623  0.30551461    -0.55200
C348        C  0.81246359  0.67779395  0.28596807     0.08800
C349        C  0.88240508  0.69957475  0.30982111    -0.54800
C350        C  0.86050090  0.72363476  0.29071283     0.09300
H351        H  0.83420438  0.69317430  0.38970601     0.13900
H352        H  0.80145527  0.73722791  0.28115044    -0.00400
H353        H  0.83323660  0.62429914  0.30010882     0.14200
H354        H  0.91234605  0.69988442  0.30806469     0.13900
C355        C  0.65805145  0.67880540  0.12193719     0.85700
C356        C  0.68613743  0.65909006  0.14757739    -0.54500
C357        C  0.70860657  0.68253061  0.16678649     0.08700
C358        C  0.70048372  0.72282789  0.15891138     0.19600
C359        C  0.63680360  0.70446359  0.14837908    -0.55200
C360        C  0.65932792  0.72732035  0.16802962     0.08800
C361        C  0.68131615  0.70369227  0.09630419    -0.54800
C362        C  0.70354592  0.72677585  0.11607157     0.09300
H363        H  0.68809479  0.62964961  0.15019941     0.13900
H364        H  0.71856826  0.74190230  0.17485516    -0.00400
H365        H  0.60727089  0.70262990  0.15341644     0.14200
H366        H  0.68090204  0.70259120  0.06573669     0.13900
C367        C  0.85876979  0.87685811  0.12957707     0.85700
C368        C  0.83657381  0.85197040  0.10299240    -0.54500
C369        C  0.81482353  0.82767768  0.12167436     0.08700
C370        C  0.81717398  0.83051030  0.16463544     0.19600
C371        C  0.82982135  0.89505508  0.15527529    -0.55200
C372        C  0.80790692  0.87036779  0.17344981     0.08800
C373        C  0.88039975  0.85100095  0.15570770    -0.54800
C374        C  0.85824584  0.82684146  0.17425790     0.09300
H375        H  0.83729520  0.85394071  0.07247910     0.13900
H376        H  0.79934239  0.81059256  0.17974884    -0.00400
H377        H  0.82691530  0.92434388  0.15872435     0.14200
H378        H  0.90994180  0.85291933  0.16060288     0.13900
C379        C  0.65518617  0.67512300  0.83858559     0.85700
C380        C  0.68059827  0.70097295  0.86095171    -0.54500
C381        C  0.70174928  0.72252727  0.83823469     0.08700
C382        C  0.69570581  0.71623037  0.79608832     0.19600
C383        C  0.63258129  0.69993311  0.81232714    -0.55200
C384        C  0.65420126  0.72143509  0.79011060     0.08800
C385        C  0.68108176  0.65351784  0.81244648    -0.54800
C386        C  0.70231486  0.67541424  0.79028481     0.09300
H387        H  0.68156181  0.70231110  0.89149705     0.13900
H388        H  0.71311673  0.73387286  0.77778332    -0.00400
H389        H  0.60261025  0.70022398  0.81112710     0.14200
H390        H  0.68285157  0.62395124  0.81188435     0.13900
C391        C  0.86000880  0.67056788  0.63252008     0.85700
C392        C  0.88185214  0.69706704  0.65796532    -0.54500
C393        C  0.85954408  0.71885632  0.67930951     0.08700
C394        C  0.81829539  0.71217818  0.67330669     0.19600
C395        C  0.83453907  0.64925419  0.65941191    -0.55200
C396        C  0.81276921  0.67147991  0.68072956     0.08800
C397        C  0.83403681  0.69493799  0.60915776    -0.54800
C398        C  0.81221811  0.71667373  0.63095992     0.09300
H399        H  0.91179342  0.69845982  0.65897905     0.13900
H400        H  0.80029877  0.73001957  0.69079500    -0.00400
H401        H  0.83391600  0.61970982  0.66154383     0.14200
H402        H  0.83286105  0.69488116  0.57858510     0.13900
C403        C  0.65442722  0.86956056  0.62572492     0.85700
C404        C  0.68060882  0.84360675  0.60449979    -0.54500
C405        C  0.70167200  0.82290600  0.62810452     0.08700
C406        C  0.69477608  0.83006414  0.66998605     0.19600
C407        C  0.63171239  0.84499565  0.65215489    -0.55200
C408        C  0.65325381  0.82438146  0.67531444     0.08800
C409        C  0.67956188  0.89215497  0.65183538    -0.54800
C410        C  0.70065694  0.87109168  0.67500917     0.09300
H411        H  0.68229142  0.84172698  0.57401982     0.13900
H412        H  0.71210230  0.81308174  0.68900962    -0.00400
H413        H  0.60173326  0.84406451  0.65261361     0.14200
H414        H  0.68078973  0.92175421  0.65179597     0.13900
C415        C  0.85674121  0.87819090  0.83477452     0.85700
C416        C  0.87909013  0.85235360  0.80906100    -0.54500
C417        C  0.85726924  0.83034880  0.78738745     0.08700
C418        C  0.81587019  0.83612888  0.79335167     0.19600
C419        C  0.83084265  0.89922170  0.80798286    -0.55200
C420        C  0.80950991  0.87678511  0.78633548     0.08800
C421        C  0.83118462  0.85298787  0.85774351    -0.54800
C422        C  0.80981512  0.83103436  0.83564910     0.09300
H423        H  0.90904919  0.85147979  0.80816988     0.13900
H424        H  0.79828543  0.81809663  0.77562069    -0.00400
H425        H  0.82962369  0.92876196  0.80618041     0.14200
H426        H  0.82986695  0.85274026  0.88830345     0.13900
N427        N  0.05453550  0.06695014  0.05375238    -0.06900
N428        N  0.07830975  0.07523487  0.08067409    -0.59000
N429        N  0.97034417  0.09342703  0.02858005    -0.06500
N430        N  0.94671052  0.11953133  0.03739903    -0.61100
N431        N  0.97043874  0.06799991  0.05479054    -0.06100
N432        N  0.94689999  0.07624044  0.08188795    -0.59000
N433        N  0.05455791  0.09236157  0.02751211    -0.05800
N434        N  0.07836218  0.11840381  0.03613078    -0.61500
C435        C  0.09320852  0.10708317  0.06903842     0.95300
C436        C  0.93216080  0.10816790  0.07044257     0.95100
N437        N  0.96849708  0.06731839  0.91244343    -0.07100
N438        N  0.94414896  0.07540390  0.88603367    -0.59600
N439        N  0.05353616  0.09158379  0.93761799    -0.05200
N440        N  0.07807469  0.11688454  0.92892072    -0.60800
N441        N  0.05278942  0.06607156  0.91148528    -0.07100
N442        N  0.07678879  0.07354541  0.88452733    -0.59800
N443        N  0.96912700  0.09290583  0.93851040    -0.04800
N444        N  0.94519530  0.11891785  0.93025901    -0.60900
Mn445      Mn  0.01188246  0.09335075  0.98299935     1.18400
C446        C  0.92961135  0.10734088  0.89778568     0.97400
C447        C  0.09257614  0.10499747  0.89607368     0.98100
N448        N  0.96882381  0.98141670  0.05473460    -0.07100
N449        N  0.94438802  0.97420397  0.08134889    -0.63400
N450        N  0.05226988  0.95452155  0.02763498    -0.05900
N451        N  0.07632883  0.92856333  0.03558877    -0.64100
N452        N  0.05311479  0.98012203  0.05364992    -0.06600
N453        N  0.07772442  0.97209812  0.07980785    -0.63700
N454        N  0.96797972  0.95602638  0.02849700    -0.05500
N455        N  0.94297174  0.93105976  0.03671058    -0.64400
Mn456      Mn  0.01177572  0.02406958  0.05494916     1.10700
C457        C  0.92829594  0.94304226  0.06940712     0.98600
C458        C  0.09217829  0.94018901  0.06788244     0.98700
N459        N  0.05171261  0.97955164  0.91203941    -0.06600
N460        N  0.07701027  0.97210467  0.88633400    -0.62000
N461        N  0.96670277  0.95541288  0.93905586    -0.05900
N462        N  0.94144333  0.93038941  0.93159322    -0.58700
N463        N  0.96683932  0.98067669  0.91270035    -0.07200
N464        N  0.94167469  0.97332269  0.88679824    -0.61600
N465        N  0.05153537  0.95429645  0.93839073    -0.06200
N466        N  0.07669775  0.92916485  0.93117764    -0.58700
Mn467      Mn  0.00993471  0.02335162  0.91133046     1.20200
Mn468      Mn  0.00957312  0.95423731  0.98334908     1.10100
Cl469      Cl  0.01075737  0.02380825  0.98316302    -0.86700
C470        C  0.09252678  0.94087465  0.89891052     0.95600
C471        C  0.92583285  0.94217284  0.89922045     0.95400
C472        C  0.66136401  0.17399885  0.34147737     0.85700
C473        C  0.68564094  0.19944541  0.36541134    -0.54500
C474        C  0.71152536  0.21750846  0.34466423     0.08700
C475        C  0.71092193  0.20809539  0.30257222     0.19600
C476        C  0.64487911  0.19861666  0.31071097    -0.55200
C477        C  0.67113958  0.21629286  0.29008740     0.08800
C478        C  0.68812931  0.14837891  0.32058046    -0.54800
C479        C  0.71417956  0.16648073  0.30016471     0.09300
H480        H  0.68106895  0.20466451  0.39516582     0.13900
H481        H  0.73226449  0.22288109  0.28599222    -0.00400
H482        H  0.61549301  0.20109112  0.30515090     0.14200
H483        H  0.68536952  0.11888256  0.32015685     0.13900
C484        C  0.85784949  0.16683983  0.13357340     0.85700
C485        C  0.87418135  0.19467137  0.16172663    -0.54500
C486        C  0.84773910  0.21301997  0.18177969     0.08700
C487        C  0.80805977  0.20216277  0.17111148     0.19600
C488        C  0.83285955  0.14201810  0.15758954    -0.55200
C489        C  0.80674660  0.16079895  0.17730912     0.08800
C490        C  0.83181365  0.18929211  0.10852181    -0.54800
C491        C  0.80580831  0.20795778  0.12838810     0.09300
H492        H  0.90358465  0.19861884  0.16614201     0.13900
H493        H  0.78643718  0.21735103  0.18687807    -0.00400
H494        H  0.83685298  0.11279167  0.16045955     0.14200
H495        H  0.83528558  0.19224012  0.07827546     0.13900
C496        C  0.66022221  0.36915389  0.12601691     0.85700
C497        C  0.68598478  0.34580478  0.10104310    -0.54500
C498        C  0.71169775  0.32694921  0.12134121     0.08700
C499        C  0.70910457  0.33300468  0.16380250     0.19600
C500        C  0.64315847  0.34197435  0.15425233    -0.55200
C501        C  0.66921118  0.32266539  0.17372452     0.08800
C502        C  0.68579047  0.39347757  0.14990681    -0.54800
C503        C  0.71136658  0.37416836  0.16967107     0.09300
H504        H  0.68333920  0.34346777  0.07067069     0.13900
H505        H  0.73021829  0.31774921  0.18021981    -0.00400
H506        H  0.61368101  0.33747124  0.15743398     0.14200
H507        H  0.68311582  0.42291118  0.15200768     0.13900
C508        C  0.85811644  0.37691159  0.33614701     0.85700
C509        C  0.87566126  0.34723461  0.31084227    -0.54500
C510        C  0.84989070  0.32701283  0.29180241     0.08700
C511        C  0.80994849  0.33885066  0.29943061     0.19600
C512        C  0.83408708  0.39981498  0.30931688    -0.55200
C513        C  0.80889469  0.37943771  0.29013138     0.08800
C514        C  0.83094322  0.35613600  0.36179603    -0.54800
C515        C  0.80560814  0.33633223  0.34213547     0.09300
H516        H  0.90513648  0.34205980  0.30909462     0.13900
H517        H  0.78906489  0.32277570  0.28352985    -0.00400
H518        H  0.83746613  0.42894914  0.30500124     0.14200
H519        H  0.83226203  0.35625432  0.39236336     0.13900
N520        N  0.05199960  0.59269190  0.43776793    -0.06900
N521        N  0.07687810  0.61785989  0.42978675    -0.59000
N522        N  0.96739402  0.56689889  0.41209479    -0.06500
N523        N  0.94295083  0.57436696  0.38557181    -0.61100
N524        N  0.96744681  0.59259073  0.43802728    -0.06100
N525        N  0.94300023  0.61807872  0.42959004    -0.59000
N526        N  0.05183668  0.56713852  0.41171223    -0.05800
N527        N  0.07658864  0.57440119  0.38544486    -0.61500
C528        C  0.09215221  0.60580898  0.39739489     0.95300
C529        C  0.92771360  0.60605631  0.39712509     0.95100
N530        N  0.96804494  0.45525117  0.43925070    -0.07100
N531        N  0.94407007  0.42921483  0.43131555    -0.59600
N532        N  0.05211293  0.48087049  0.41222746    -0.05200
N533        N  0.07670463  0.47344493  0.38585617    -0.60800
N534        N  0.05249745  0.45557587  0.43854966    -0.07100
N535        N  0.07738815  0.43037925  0.43056941    -0.59800
N536        N  0.96775323  0.48042225  0.41280800    -0.04800
N537        N  0.94358979  0.47199457  0.38632985    -0.60900
Mn538      Mn  0.00973493  0.52384477  0.41141915     1.18400
C539        C  0.92885772  0.44028521  0.39853529     0.97400
C540        C  0.09241673  0.44217155  0.39790956     0.98100
N541        N  0.96834031  0.59310323  0.52768415    -0.07100
N542        N  0.94356812  0.61839392  0.53556528    -0.63400
N543        N  0.05328121  0.56840898  0.55348181    -0.05900
N544        N  0.07805906  0.57660861  0.57949226    -0.64100
N545        N  0.05277710  0.59360808  0.52703890    -0.06600
N546        N  0.07720822  0.61938445  0.53452421    -0.63700
N547        N  0.96883163  0.56799485  0.55419563    -0.05500
N548        N  0.94438768  0.57567115  0.58063028    -0.64400
Mn549      Mn  0.01009177  0.59384778  0.48262654     1.10700
C550        C  0.92866544  0.60685513  0.56833491     0.98600
C551        C  0.09297930  0.60817096  0.56699679     0.98700
N552        N  0.05291855  0.45600893  0.52807178    -0.06600
N553        N  0.07744158  0.43048329  0.53593989    -0.62000
N554        N  0.96869208  0.48165663  0.55465909    -0.05900
N555        N  0.94355696  0.47455509  0.58063211    -0.58700
N556        N  0.96844601  0.45622647  0.52845805    -0.07200
N557        N  0.94314734  0.43134439  0.53604565    -0.61600
N558        N  0.05320278  0.48151957  0.55419163    -0.06200
N559        N  0.07792624  0.47382902  0.58038220    -0.58700
Mn560      Mn  0.01050146  0.45493688  0.48362612     1.20200
Mn561      Mn  0.01108433  0.52488888  0.55504593     1.10100
Cl562      Cl  0.01037642  0.52438662  0.48320246    -0.86700
C563        C  0.09301371  0.44223319  0.56829985     0.95600
C564        C  0.92767644  0.44338889  0.56834448     0.95400
C565        C  0.90451128  0.41807773  0.37635173    -0.14000
C566        C  0.88450457  0.39904729  0.35761376    -0.15600
C567        C  0.79884744  0.39077060  0.22246907    -0.14100
C568        C  0.78529652  0.39264698  0.25940804     0.08100
C569        C  0.74719354  0.39579878  0.26551530    -0.14100
C570        C  0.72271369  0.39441126  0.23509507    -0.14100
C571        C  0.73616778  0.38943170  0.19841574     0.08100
C572        C  0.77436682  0.38894928  0.19210055    -0.14100
H573        H  0.82810701  0.38693993  0.21742944     0.12000
H574        H  0.73629822  0.39596899  0.29392562     0.12000
H575        H  0.69327595  0.39352575  0.24052756     0.12000
H576        H  0.78510870  0.38400019  0.16410115     0.12000
C577        C  0.74659789  0.23319252  0.10350127    -0.14100
C578        C  0.78393198  0.23815086  0.11260639     0.08100
C579        C  0.79830463  0.27354999  0.11508992    -0.14100
C580        C  0.77491496  0.30367224  0.11235454    -0.14100
C581        C  0.73693794  0.29878758  0.10668035     0.08100
C582        C  0.72323575  0.26350483  0.10001309    -0.14100
H583        H  0.73496050  0.20599211  0.10235565     0.12000
H584        H  0.82694642  0.27776285  0.12282264     0.12000
H585        H  0.78581110  0.33052229  0.11850718     0.12000
H586        H  0.69380949  0.25911321  0.09684479     0.12000
C587        C  0.88025410  0.26827682  0.20921515    -0.14100
C588        C  0.85504221  0.23924559  0.21280677     0.08100
C589        C  0.83312125  0.23723233  0.24525214    -0.14100
C590        C  0.83460583  0.26425786  0.27252153    -0.14100
C591        C  0.85729380  0.29482005  0.26773787     0.08100
C592        C  0.88120698  0.29618207  0.23653284    -0.14100
H593        H  0.89726348  0.27062066  0.18423600     0.12000
H594        H  0.81327368  0.21562977  0.24890469     0.12000
H595        H  0.81605157  0.26235807  0.29635393     0.12000
H596        H  0.89863239  0.31978608  0.23204444     0.12000
C597        C  0.63841277  0.26914976  0.25936005    -0.14100
C598        C  0.66343655  0.23987936  0.25741001     0.08100
C599        C  0.68512950  0.23545173  0.22517786    -0.14100
C600        C  0.68407525  0.26103813  0.19657106    -0.14100
C601        C  0.66178946  0.29208853  0.19966958     0.08100
C602        C  0.63766026  0.29537815  0.23048783    -0.14100
H603        H  0.62153194  0.27306554  0.28422624     0.12000
H604        H  0.70447376  0.21316182  0.22286559     0.12000
H605        H  0.70265076  0.25760528  0.17301663     0.12000
H606        H  0.62037345  0.31929992  0.23349013     0.12000
C607        C  0.76834594  0.24615504  0.37114545    -0.14100
C608        C  0.73198453  0.24964921  0.35809379     0.08100
C609        C  0.71828060  0.28423288  0.34879852    -0.14100
C610        C  0.74168425  0.31443151  0.34884406    -0.14100
C611        C  0.77900210  0.31040797  0.35835655     0.08100
C612        C  0.79173832  0.27661132  0.37165557    -0.14100
H613        H  0.77952017  0.21947759  0.37753288     0.12000
H614        H  0.69047348  0.28720017  0.33793494     0.12000
H615        H  0.73165115  0.34007396  0.33769760     0.12000
H616        H  0.82074977  0.27281381  0.37801264     0.12000
C617        C  0.77622995  0.14894531  0.27616628    -0.14100
C618        C  0.73783903  0.14932290  0.27133795     0.08100
C619        C  0.72303371  0.14304008  0.23537826    -0.14100
C620        C  0.74625494  0.14200578  0.20387279    -0.14100
C621        C  0.78452508  0.14550101  0.20835000     0.08100
C622        C  0.79949876  0.14593771  0.24482302    -0.14100
H623        H  0.78813995  0.15435744  0.30359925     0.12000
H624        H  0.69341526  0.14372239  0.23113639     0.12000
H625        H  0.73417832  0.14221137  0.17596285     0.12000
H626        H  0.82900306  0.14910294  0.24872930     0.12000
C627        C  0.90689582  0.12926550  0.09277540    -0.14000
C628        C  0.88554101  0.14658316  0.11176453    -0.15600
C629        C  0.87995832  0.90204449  0.85837454    -0.14000
C630        C  0.89994189  0.92096631  0.87745588    -0.15600
C631        C  0.71800184  0.89003312  0.73981186    -0.14100
C632        C  0.72797468  0.88508006  0.70198939     0.08100
C633        C  0.76536417  0.88477198  0.69194808    -0.14100
C634        C  0.79259202  0.88661034  0.71972416    -0.14100
C635        C  0.78268357  0.88875576  0.75781208     0.08100
C636        C  0.74531317  0.89196600  0.76763943    -0.14100
H637        H  0.68921624  0.88943333  0.74805211     0.12000
H638        H  0.77343631  0.88020381  0.66296009     0.12000
H639        H  0.82123217  0.88335908  0.71175091     0.12000
H640        H  0.73719340  0.89283541  0.79698703     0.12000
C641        C  0.74712284  0.73202391  0.61763280    -0.14100
C642        C  0.78438252  0.74230913  0.61681257     0.08100
C643        C  0.79374451  0.77919485  0.61285448    -0.14100
C644        C  0.76609420  0.80579656  0.61242718    -0.14100
C645        C  0.72893739  0.79564905  0.61598532     0.08100
C646        C  0.71950253  0.75860387  0.61721074    -0.14100
H647        H  0.73954424  0.70373120  0.62177966     0.12000
H648        H  0.82242564  0.78757192  0.61330380     0.12000
H649        H  0.77381753  0.83431585  0.61233789     0.12000
H650        H  0.69100196  0.75041764  0.62075714     0.12000
C651        C  0.87357958  0.73833523  0.74469590    -0.14100
C652        C  0.87215654  0.74682460  0.70621072     0.08100
C653        C  0.87270182  0.78347625  0.69498817    -0.14100
C654        C  0.87212259  0.81129469  0.72198368    -0.14100
C655        C  0.87063055  0.80273763  0.76045270     0.08100
C656        C  0.87254112  0.76613549  0.77169408    -0.14100
H657        H  0.87257243  0.71022075  0.75385013     0.12000
H658        H  0.87062409  0.79051247  0.66544133     0.12000
H659        H  0.86992171  0.83934414  0.71280700     0.12000
H660        H  0.87037993  0.75900865  0.80122201     0.12000
C661        C  0.88350427  0.64698374  0.60933311    -0.14000
C662        C  0.90333643  0.62810185  0.59029432    -0.15600
C663        C  0.63951119  0.73556152  0.72382092    -0.14100
C664        C  0.64041826  0.74685761  0.76150378     0.08100
C665        C  0.63775844  0.78404187  0.77017558    -0.14100
C666        C  0.63742229  0.80991715  0.74130054    -0.14100
C667        C  0.63948479  0.79867183  0.70363274     0.08100
C668        C  0.63887484  0.76141362  0.69496709    -0.14100
H669        H  0.64251970  0.70698376  0.71676589     0.12000
H670        H  0.63909076  0.79313589  0.79915371     0.12000
H671        H  0.63886494  0.83861427  0.74837424     0.12000
H672        H  0.64125733  0.75240252  0.66602606     0.12000
C673        C  0.72148867  0.65522566  0.72643178    -0.14100
C674        C  0.73069268  0.66236017  0.76407195     0.08100
C675        C  0.76783465  0.66522565  0.77457114    -0.14100
C676        C  0.79547812  0.66352990  0.74730060    -0.14100
C677        C  0.78621755  0.65925713  0.70926479     0.08100
C678        C  0.74923741  0.65370184  0.69904350    -0.14100
H679        H  0.69281674  0.65387123  0.71785486     0.12000
H680        H  0.77523834  0.67146970  0.80340769     0.12000
H681        H  0.82378965  0.66849854  0.75549301     0.12000
H682        H  0.74161710  0.65139489  0.66964002     0.12000
C683        C  0.76504953  0.74137518  0.85666693    -0.14100
C684        C  0.72782499  0.75051222  0.85125466     0.08100
C685        C  0.71770188  0.78722740  0.84791895    -0.14100
C686        C  0.74472261  0.81434277  0.84702475    -0.14100
C687        C  0.78213928  0.80501403  0.84954367     0.08100
C688        C  0.79217062  0.76857213  0.85572940    -0.14100
H689        H  0.77335385  0.71305463  0.85833654     0.12000
H690        H  0.68919470  0.79460778  0.84293052     0.12000
H691        H  0.73663031  0.84222349  0.84136747     0.12000
H692        H  0.82103452  0.76086333  0.85662466     0.12000
C693        C  0.88232535  0.90278478  0.10931057    -0.14000
C694        C  0.90254480  0.92227664  0.09137620    -0.15600
C695        C  0.72299726  0.78892460  0.09779102    -0.14100
C696        C  0.73105066  0.75160082  0.09962093     0.08100
C697        C  0.76796334  0.74012142  0.09842124    -0.14100
C698        C  0.79648053  0.76566301  0.10134942    -0.14100
C699        C  0.78821157  0.80289612  0.10369863     0.08100
C700        C  0.75158965  0.81452300  0.09921638    -0.14100
H701        H  0.69464508  0.79824610  0.09933763     0.12000
H702        H  0.77455133  0.71134708  0.09977048     0.12000
H703        H  0.82456690  0.75623927  0.10534723     0.12000
H704        H  0.74482905  0.84323391  0.10115911     0.12000
C705        C  0.79854834  0.68556148  0.21862309    -0.14100
C706        C  0.78941301  0.66899549  0.25289397     0.08100
C707        C  0.75523410  0.65121625  0.25650672    -0.14100
C708        C  0.72956322  0.65238427  0.22677909    -0.14100
C709        C  0.73786048  0.67178779  0.19366336     0.08100
C710        C  0.77298563  0.68719977  0.18948720    -0.14100
H711        H  0.82460793  0.69959658  0.21532786     0.12000
H712        H  0.74740970  0.63892715  0.28307441     0.12000
H713        H  0.70230609  0.64087235  0.23082158     0.12000
H714        H  0.77994573  0.70258584  0.16458207     0.12000
C715        C  0.88612288  0.74299491  0.22853241    -0.14100
C716        C  0.87315747  0.75234544  0.26456611     0.08100
C717        C  0.86201443  0.78831418  0.27156794    -0.14100
C718        C  0.86064615  0.81372004  0.24240297    -0.14100
C719        C  0.87042169  0.80354962  0.20570665     0.08100
C720        C  0.88446559  0.76848180  0.19907388    -0.14100
H721        H  0.89388839  0.71511077  0.22232965     0.12000
H722        H  0.85133391  0.79591108  0.29892104     0.12000
H723        H  0.84922201  0.84050634  0.24787929     0.12000
H724        H  0.89130900  0.75999905  0.17068841     0.12000
C725        C  0.88325499  0.64660526  0.35536101    -0.14000
C726        C  0.90276842  0.62733888  0.37448096    -0.15600
C727        C  0.66037285  0.73419204  0.23680112    -0.14100
C728        C  0.64762740  0.74696782  0.20202888     0.08100
C729        C  0.63001066  0.78095088  0.19986523    -0.14100
C730        C  0.62830214  0.80333995  0.23186462    -0.14100
C731        C  0.64460890  0.79181097  0.26573966     0.08100
C732        C  0.65892893  0.75646423  0.26840221    -0.14100
H733        H  0.67400666  0.70801349  0.23888172     0.12000
H734        H  0.62041724  0.79126704  0.17301395     0.12000
H735        H  0.61783977  0.83088429  0.22915892     0.12000
H736        H  0.67196300  0.74725007  0.29407555     0.12000
C737        C  0.74329369  0.86418919  0.19436644    -0.14100
C738        C  0.77829484  0.87937092  0.20028067     0.08100
C739        C  0.78654326  0.89556778  0.23514062    -0.14100
C740        C  0.76082213  0.89400036  0.26465286    -0.14100
C741        C  0.72681227  0.87646700  0.25916754     0.08100
C742        C  0.71773964  0.86280783  0.22353573    -0.14100
H743        H  0.73662339  0.85107972  0.16795330     0.12000
H744        H  0.81381346  0.90656676  0.24043129     0.12000
H745        H  0.76846622  0.90393754  0.29231414     0.12000
H746        H  0.69176485  0.84887401  0.21898358     0.12000
C747        C  0.72135722  0.75948436  0.35906208    -0.14100
C748        C  0.73015125  0.79672104  0.35872253     0.08100
C749        C  0.76723723  0.80748027  0.36102940    -0.14100
C750        C  0.79529299  0.78128140  0.36005087    -0.14100
C751        C  0.78642524  0.74424920  0.35612460     0.08100
C752        C  0.74938041  0.73334594  0.35738781    -0.14100
H753        H  0.69288824  0.75078386  0.35679093     0.12000
H754        H  0.77452189  0.83612060  0.35975244     0.12000
H755        H  0.82379302  0.79010814  0.35874942     0.12000
H756        H  0.74208841  0.70493279  0.35344321     0.12000
C757        C  0.11899528  0.91994832  0.87779620    -0.14000
C758        C  0.13952037  0.90141673  0.85902268    -0.15600
C759        C  0.14817744  0.78608347  0.69340495    -0.14100
C760        C  0.14834651  0.74933074  0.70430747     0.08100
C761        C  0.14623578  0.74049308  0.74267170    -0.14100
C762        C  0.14679086  0.76806501  0.76991619    -0.14100
C763        C  0.14941996  0.80471481  0.75902051     0.08100
C764        C  0.14878398  0.81366138  0.72063487    -0.14100
H765        H  0.15060948  0.79336653  0.66396048     0.12000
H766        H  0.14728072  0.71228132  0.75158232     0.12000
H767        H  0.14830576  0.76069122  0.79941698     0.18000
H768        H  0.15172800  0.84176554  0.71178235     0.12000
C769        C  0.13817629  0.64941680  0.60725961    -0.14000
C770        C  0.11834583  0.63007098  0.58854131    -0.15600
C771        C  0.25521740  0.80950685  0.61574256    -0.14100
C772        C  0.29239630  0.79904875  0.61685792     0.08100
C773        C  0.30167472  0.76201847  0.61440617    -0.14100
C774        C  0.27388303  0.73552438  0.61396918    -0.14100
C775        C  0.23667824  0.74595051  0.61583030     0.08100
C776        C  0.22747075  0.78305496  0.61516524    -0.14100
H777        H  0.24767362  0.83796072  0.61832149     0.12000
H778        H  0.33027497  0.75354614  0.61589620     0.12000
H779        H  0.28142305  0.70698208  0.61547516     0.12000
H780        H  0.19891419  0.79150434  0.61739282     0.12000
C781        C  0.30235580  0.88990189  0.74222883    -0.14100
C782        C  0.29278233  0.88775918  0.70406800     0.08100
C783        C  0.25566496  0.89081551  0.69337338    -0.14100
C784        C  0.22806813  0.89265785  0.72084376    -0.14100
C785        C  0.23748831  0.89171168  0.75912819     0.08100
C786        C  0.27478294  0.89215758  0.76964786    -0.14100
H787        H  0.33086954  0.88687487  0.75088001     0.12000
H788        H  0.24789125  0.88863713  0.66401123     0.12000
H789        H  0.19938406  0.89151195  0.71230395     0.12000
H790        H  0.28244301  0.89094714  0.79908060     0.12000
C791        C  0.30004314  0.65800445  0.72474078    -0.14100
C792        C  0.29061067  0.66173210  0.76284937     0.08100
C793        C  0.25331276  0.66292101  0.77329144    -0.14100
C794        C  0.22577066  0.66303964  0.74574048    -0.14100
C795        C  0.23531054  0.66192913  0.70750854     0.08100
C796        C  0.27246628  0.65812171  0.69715076    -0.14100
H797        H  0.32874168  0.65804388  0.71620180     0.12000
H798        H  0.24566782  0.66677001  0.80251821     0.12000
H799        H  0.19729246  0.66687916  0.75410474     0.12000
H800        H  0.28028861  0.65825307  0.66769698     0.12000
C801        C  0.25490667  0.74113760  0.85329031    -0.14100
C802        C  0.29231500  0.75032028  0.84935892     0.08100
C803        C  0.30251997  0.78711887  0.84710361    -0.14100
C804        C  0.27550639  0.81430865  0.84636040    -0.14100
C805        C  0.23798816  0.80500814  0.84763756     0.08100
C806        C  0.22782363  0.76838195  0.85234359    -0.14100
H807        H  0.24652278  0.71279951  0.85400522     0.12000
H808        H  0.33116755  0.79459440  0.84304304     0.12000
H809        H  0.28379227  0.84233829  0.84205741     0.12000
H810        H  0.19895122  0.76066491  0.85231686     0.12000
C811        C  0.37973627  0.73612437  0.72334406    -0.14100
C812        C  0.38095696  0.74615297  0.76137414     0.08100
C813        C  0.38538921  0.78288591  0.77127616    -0.14100
C814        C  0.38514011  0.80974061  0.74336725    -0.14100
C815        C  0.38068615  0.79980621  0.70553081     0.08100
C816        C  0.37968937  0.76290475  0.69548740    -0.14100
H817        H  0.37552558  0.70792381  0.71542195     0.12000
H818        H  0.38557845  0.79096957  0.80062052     0.12000
H819        H  0.38510565  0.83820820  0.75148437     0.12000
H820        H  0.37562903  0.75498310  0.66639805     0.12000
C821        C  0.88511671  0.14787768  0.85613097    -0.14000
C822        C  0.90475736  0.12899207  0.87547814    -0.15600
C823        C  0.72298708  0.15955715  0.73773967    -0.14100
C824        C  0.73305307  0.16336916  0.69981588     0.08100
C825        C  0.77052937  0.16379883  0.68998196    -0.14100
C826        C  0.79763911  0.16292525  0.71801022    -0.14100
C827        C  0.78750730  0.16192750  0.75610817     0.08100
C828        C  0.75009723  0.15902884  0.76579587    -0.14100
H829        H  0.69418049  0.15976724  0.74580865     0.12000
H830        H  0.77871782  0.16752631  0.66090573     0.12000
H831        H  0.82634814  0.16585494  0.71010852     0.12000
H832        H  0.74178922  0.15913886  0.79509986     0.12000
C833        C  0.74748966  0.31491938  0.61370869    -0.14100
C834        C  0.78490466  0.30517494  0.61363731     0.08100
C835        C  0.79485656  0.26846281  0.60946208    -0.14100
C836        C  0.76758074  0.24148597  0.60835665    -0.14100
C837        C  0.73025609  0.25107948  0.61168721     0.08100
C838        C  0.72024645  0.28795892  0.61287178    -0.14100
H839        H  0.73943874  0.34307860  0.61773398     0.12000
H840        H  0.82363653  0.26048549  0.61038880     0.12000
H841        H  0.77570821  0.21306520  0.60837581     0.12000
H842        H  0.69159698  0.29568162  0.61647809     0.12000
C843        C  0.87442187  0.31243492  0.74283391    -0.14100
C844        C  0.87275490  0.30306409  0.70457237     0.08100
C845        C  0.87449135  0.26626066  0.69407729    -0.14100
C846        C  0.87532585  0.23902638  0.72164346    -0.14100
C847        C  0.87396168  0.24832318  0.75993021     0.08100
C848        C  0.87481537  0.28517723  0.77041328    -0.14100
H849        H  0.87232242  0.34068892  0.75139325     0.12000
H850        H  0.87223892  0.25855453  0.66471475     0.12000
H851        H  0.87393970  0.21073756  0.71309508     0.12000
H852        H  0.87279385  0.29281821  0.79980752     0.12000
C853        C  0.90155509  0.42255220  0.58989179    -0.14000
C854        C  0.88141170  0.40343006  0.60840227    -0.15600
C855        C  0.64302392  0.25866294  0.76983761    -0.14100
C856        C  0.64157162  0.29604152  0.76197521     0.08100
C857        C  0.63728423  0.30796197  0.72473293    -0.14100
C858        C  0.63794709  0.28275406  0.69523920    -0.14100
C859        C  0.64262716  0.24560202  0.70302048     0.08100
C860        C  0.64334958  0.23348618  0.74040758    -0.14100
H861        H  0.64702277  0.24919556  0.79843134     0.12000
H862        H  0.63694216  0.33683446  0.71832057     0.12000
H863        H  0.63812049  0.29245562  0.66642872     0.12000
H864        H  0.64737219  0.20489006  0.74669008     0.12000
C865        C  0.72106041  0.25845293  0.85287917    -0.14100
C866        C  0.72983572  0.29567126  0.85221260     0.08100
C867        C  0.76689035  0.30657969  0.85396620    -0.14100
C868        C  0.79500410  0.28050591  0.85304834    -0.14100
C869        C  0.78620562  0.24337280  0.85055270     0.08100
C870        C  0.74917614  0.23236581  0.85211105    -0.14100
H871        H  0.69259710  0.24966377  0.85067861     0.12000
H872        H  0.77406028  0.33521429  0.85266993     0.12000
H873        H  0.82345389  0.28939674  0.85094926     0.12000
H874        H  0.74199806  0.20382310  0.84929997     0.12000
C875        C  0.76635005  0.38398923  0.77337759    -0.14100
C876        C  0.72896415  0.38246313  0.76333299     0.08100
C877        C  0.71884006  0.38575870  0.72538713    -0.14100
C878        C  0.74602420  0.38799043  0.69750804    -0.14100
C879        C  0.78348270  0.38679963  0.70738657     0.08100
C880        C  0.79350701  0.38616796  0.74550555    -0.14100
H881        H  0.77457239  0.38078231  0.80250085     0.12000
H882        H  0.69010430  0.38378234  0.71718051     0.12000
H883        H  0.73788027  0.38768212  0.66817647     0.12000
H884        H  0.82229423  0.38445196  0.75352166     0.12000
C885        C  0.63337043  0.15420124  0.36295122    -0.14000
C886        C  0.61221134  0.13485009  0.37973698    -0.15600
C887        C  0.63159353  0.89216244  0.60103573    -0.14000
C888        C  0.61314657  0.91265575  0.58243577    -0.15600
C889        C  0.63142627  0.89351875  0.35942333    -0.14000
C890        C  0.61234735  0.91499248  0.37611004    -0.15600
C891        C  0.39068686  0.89454165  0.60508551    -0.14000
C892        C  0.40923613  0.91479125  0.58647856    -0.15600
C893        C  0.63454200  0.15262672  0.60102009    -0.14000
C894        C  0.61512374  0.13254923  0.58309758    -0.15600
C895        C  0.38731283  0.89337082  0.36430085    -0.14000
C896        C  0.40664072  0.91388630  0.38183810    -0.15600
C897        C  0.22510697  0.77882160  0.35742372    -0.14100
C898        C  0.23561194  0.74217316  0.35439426     0.08100
C899        C  0.27312356  0.73286527  0.35524307    -0.14100
C900        C  0.29997839  0.76021387  0.35548999    -0.14100
C901        C  0.28941291  0.79696525  0.35517439     0.08100
C902        C  0.25195726  0.80616573  0.35786820    -0.14100
H903        H  0.19622937  0.78639690  0.35579194     0.12000
H904        H  0.28156769  0.70471835  0.35206438     0.12000
H905        H  0.32877804  0.75277888  0.35243337     0.12000
H906        H  0.24343994  0.83443975  0.35687724     0.12000
C907        C  0.13773606  0.64569477  0.35664105    -0.14000
C908        C  0.11768554  0.62677269  0.37539409    -0.15600
C909        C  0.15105769  0.76478923  0.19594223    -0.14100
C910        C  0.15043319  0.80158311  0.20651152     0.08100
C911        C  0.14708263  0.81070938  0.24474299    -0.14100
C912        C  0.14746894  0.78334978  0.27225289    -0.14100
C913        C  0.15069341  0.74665192  0.26165413     0.08100
C914        C  0.15114189  0.73746589  0.22335067    -0.14100
H915        H  0.15407714  0.75727161  0.16663612     0.12000
H916        H  0.14685409  0.83898335  0.25341290     0.12000
H917        H  0.14795533  0.79092813  0.30174020     0.12000
H918        H  0.15432500  0.70933424  0.21475930     0.12000
C919        C  0.22342677  0.88576345  0.24728028    -0.14100
C920        C  0.23446975  0.88961212  0.20967500     0.08100
C921        C  0.27188902  0.89510224  0.20128337    -0.14100
C922        C  0.29827769  0.89375195  0.23005710    -0.14100
C923        C  0.28738301  0.88635646  0.26718884     0.08100
C924        C  0.24976432  0.88380790  0.27588243    -0.14100
H925        H  0.19471039  0.88109487  0.25411480     0.12000
H926        H  0.28091651  0.89716305  0.17227604     0.12000
H927        H  0.32730301  0.89524846  0.22288267     0.12000
H928        H  0.24098071  0.87756097  0.30429950     0.12000
C929        C  0.11749343  0.91875029  0.08972905    -0.14000
C930        C  0.13762272  0.90023843  0.10886232    -0.15600
C931        C  0.38211398  0.73857035  0.24073843    -0.14100
C932        C  0.37639160  0.74985029  0.20347453     0.08100
C933        C  0.37246194  0.78699688  0.19532765    -0.14100
C934        C  0.37146128  0.81244655  0.22445260    -0.14100
C935        C  0.37433214  0.80091103  0.26191494     0.08100
C936        C  0.38100173  0.76409237  0.26997376    -0.14100
H937        H  0.38419852  0.70983032  0.24743310     0.12000
H938        H  0.36722777  0.79592757  0.16677344     0.12000
H939        H  0.36562850  0.84070891  0.21796466     0.12000
H940        H  0.38233873  0.75478495  0.29890075     0.12000
C941        C  0.30148300  0.66205894  0.23988031    -0.14100
C942        C  0.29083850  0.66267592  0.20193154     0.08100
C943        C  0.25334205  0.65969315  0.19259414    -0.14100
C944        C  0.22659490  0.65856926  0.22102731    -0.14100
C945        C  0.23715427  0.66071251  0.25896546     0.08100
C946        C  0.27475869  0.66116097  0.26826748    -0.14100
H947        H  0.33025201  0.66529310  0.24752018     0.12000
H948        H  0.24465087  0.66108102  0.16344369     0.12000
H949        H  0.19766090  0.65897339  0.21339158     0.12000
H950        H  0.28331226  0.66364912  0.29736741     0.12000
C951        C  0.30077495  0.78709306  0.11005327    -0.14100
C952        C  0.29082961  0.75018490  0.11238811     0.08100
C953        C  0.25337069  0.74061127  0.11319854    -0.14100
C954        C  0.22626866  0.76766991  0.11460984    -0.14100
C955        C  0.23635788  0.80453280  0.11570881     0.08100
C956        C  0.27363528  0.81421488  0.11194397    -0.14100
H957        H  0.32960707  0.79493894  0.11025668     0.12000
H958        H  0.24527693  0.71231721  0.11600291     0.12000
H959        H  0.19765763  0.75979005  0.11792361     0.12000
H960        H  0.28190058  0.84256034  0.11364285     0.12000
C961        C  0.61303472  0.41074966  0.08736568    -0.14000
C962        C  0.63302658  0.39042614  0.10462468    -0.15600
C963        C  0.63233004  0.65157389  0.86224467    -0.14000
C964        C  0.61408158  0.63056791  0.88041926    -0.15600
C965        C  0.61468895  0.63232072  0.08489335    -0.14000
C966        C  0.63393025  0.65380703  0.10133679    -0.15600
C967        C  0.40776269  0.63167633  0.88075497    -0.14000
C968        C  0.38851342  0.65180226  0.86253058    -0.15600
C969        C  0.61175479  0.41117442  0.88061012    -0.14000
C970        C  0.63075077  0.39093384  0.86234845    -0.15600
C971        C  0.39034803  0.65430786  0.10386927    -0.14000
C972        C  0.40988278  0.63375220  0.08644561    -0.15600
C973        C  0.38718513  0.39347916  0.86263964    -0.14000
C974        C  0.40633646  0.41402264  0.88045944    -0.15600
C975        C  0.23462882  0.39778915  0.73374330    -0.14100
C976        C  0.24255486  0.37936326  0.69997307     0.08100
C977        C  0.27729567  0.36321927  0.69524262    -0.14100
C978        C  0.30266650  0.36288120  0.72461313    -0.14100
C979        C  0.29370602  0.37841706  0.75944833     0.08100
C980        C  0.26015363  0.39716904  0.76356425    -0.14100
H981        H  0.20766036  0.40980516  0.73816211     0.12000
H982        H  0.28389149  0.34858319  0.66972963     0.12000
H983        H  0.32827599  0.34804329  0.72101854     0.12000
H984        H  0.25254494  0.40867325  0.79056708     0.12000
C985        C  0.13914487  0.40147555  0.60755197    -0.14000
C986        C  0.11881040  0.42103516  0.58981057    -0.15600
C987        C  0.22243063  0.28186077  0.86014769    -0.14100
C988        C  0.23208233  0.24493664  0.85729134     0.08100
C989        C  0.26928081  0.23478527  0.85990953    -0.14100
C990        C  0.29674170  0.26152340  0.86166370    -0.14100
C991        C  0.28723332  0.29853602  0.85987975     0.08100
C992        C  0.24992919  0.30863305  0.86094082    -0.14100
H993        H  0.19379570  0.29007982  0.85809933     0.12000
H994        H  0.27720958  0.20645260  0.85690223     0.12000
H995        H  0.32545231  0.25334587  0.86044537     0.12000
H996        H  0.24214033  0.33707561  0.85869647     0.12000
C997        C  0.16133939  0.28772577  0.76974021    -0.14100
C998        C  0.14785084  0.25235161  0.76388050     0.08100
C999        C  0.13276860  0.24332281  0.72858074    -0.14100
C1000       C  0.13469184  0.26836207  0.69862371    -0.14100
C1001       C  0.15134802  0.30255704  0.70406832     0.08100
C1002       C  0.16313085  0.31255167  0.74015580    -0.14100
H1003       H  0.17353851  0.29515328  0.79641273     0.12000
H1004       H  0.12306406  0.21586666  0.72318853     0.12000
H1005       H  0.12599974  0.26002690  0.67072432     0.12000
H1006       H  0.17631696  0.33869272  0.74480871     0.12000
C1007       C  0.11716370  0.12639490  0.87320661    -0.14000
C1008       C  0.13644602  0.14611706  0.85437415    -0.15600
C1009       C  0.39125849  0.27902110  0.70412731    -0.14100
C1010       C  0.37189561  0.24591654  0.70570620     0.08100
C1011       C  0.35643768  0.23441305  0.73980400    -0.14100
C1012       C  0.35714330  0.25710730  0.77109610    -0.14100
C1013       C  0.37337446  0.29169313  0.76883266     0.08100
C1014       C  0.39213468  0.30189258  0.73582332    -0.14100
H1015       H  0.40294672  0.28839398  0.67777382     0.12000
H1016       H  0.34138940  0.20893204  0.74146794     0.12000
H1017       H  0.34222903  0.24890516  0.79604022     0.12000
H1018       H  0.40412356  0.32885235  0.73336229     0.12000
C1019       C  0.30056756  0.28892753  0.59995345    -0.14100
C1020       C  0.29220196  0.25162855  0.60081669     0.08100
C1021       C  0.25529912  0.24038923  0.59785103    -0.14100
C1022       C  0.22685289  0.26609416  0.59955449    -0.14100
C1023       C  0.23523766  0.30324253  0.60286788     0.08100
C1024       C  0.27210821  0.31468544  0.60035372    -0.14100
H1025       H  0.32887569  0.29804748  0.60300254     0.12000
H1026       H  0.24843576  0.21164902  0.59884835     0.12000
H1027       H  0.19856063  0.25680319  0.60211967     0.12000
H1028       H  0.27896526  0.34332399  0.60305794     0.12000
C1029       C  0.28951375  0.15018075  0.72641158    -0.14100
C1030       C  0.28213248  0.17093051  0.69395470     0.08100
C1031       C  0.24777972  0.18802114  0.69022873    -0.14100
C1032       C  0.22231869  0.18696548  0.71943856    -0.14100
C1033       C  0.23077913  0.16913236  0.75321295     0.08100
C1034       C  0.26388631  0.14943283  0.75615568    -0.14100
H1035       H  0.31619961  0.13734606  0.73006813     0.12000
H1036       H  0.24154776  0.20436570  0.66572177     0.12000
H1037       H  0.19698317  0.20231609  0.71662036     0.12000
H1038       H  0.27107602  0.13597414  0.78229894     0.12000
C1039       C  0.40813481  0.13235856  0.58784325    -0.14000
C1040       C  0.38857268  0.15328884  0.60463193    -0.15600
C1041       C  0.13933620  0.40387910  0.35679392    -0.14000
C1042       C  0.11839957  0.42149552  0.37599188    -0.15600
C1043       C  0.13985341  0.24753501  0.23934020    -0.14100
C1044       C  0.15820753  0.25020528  0.20456699     0.08100
C1045       C  0.17535392  0.28308636  0.19475737    -0.14100
C1046       C  0.17653362  0.31197367  0.22010646    -0.14100
C1047       C  0.16025085  0.30891883  0.25574846     0.08100
C1048       C  0.14070726  0.27695109  0.26483165    -0.14100
H1049       H  0.12731427  0.22200391  0.24780623     0.12000
H1050       H  0.19012065  0.28555023  0.16836315     0.12000
H1051       H  0.19219562  0.33592233  0.21261299     0.12000
H1052       H  0.12867640  0.27371525  0.29256393     0.12000
C1053       C  0.13710022  0.14763782  0.11159822    -0.14000
C1054       C  0.11742062  0.12906860  0.09187624    -0.15600
C1055       C  0.29672951  0.28235220  0.36564750    -0.14100
C1056       C  0.28445762  0.24747820  0.35507384     0.08100
C1057       C  0.24725721  0.24241722  0.34557641    -0.14100
C1058       C  0.22346325  0.27217152  0.34315692    -0.14100
C1059       C  0.23657824  0.30746219  0.35009572     0.08100
C1060       C  0.27290388  0.31239309  0.36280054    -0.14100
H1061       H  0.32557969  0.28690004  0.37217319     0.12000
H1062       H  0.23737639  0.21591574  0.33687356     0.12000
H1063       H  0.19562505  0.26801193  0.33281992     0.12000
H1064       H  0.28360445  0.33960176  0.36748372     0.12000
C1065       C  0.24908861  0.15486486  0.27934190    -0.14100
C1066       C  0.28677605  0.15404452  0.27046661     0.08100
C1067       C  0.29776953  0.14787217  0.23315982    -0.14100
C1068       C  0.27132714  0.14633529  0.20448427    -0.14100
C1069       C  0.23384475  0.15131665  0.21297076     0.08100
C1070       C  0.22270776  0.15384701  0.25067117    -0.14100
H1071       H  0.24024235  0.15968027  0.30800887     0.12000
H1072       H  0.32680559  0.14798753  0.22578157     0.12000
H1073       H  0.28036901  0.14506671  0.17544650     0.12000
H1074       H  0.19396826  0.15866094  0.25759564     0.12000
C1075       C  0.38804546  0.15625289  0.36625177    -0.14000
C1076       C  0.40826545  0.13642877  0.38353025    -0.15600
C1077       C  0.35540752  0.31196018  0.24716572    -0.14100
C1078       C  0.37056563  0.30447368  0.21176178     0.08100
C1079       C  0.38710040  0.27042980  0.20509390    -0.14100
C1080       C  0.38550162  0.24319101  0.23279898    -0.14100
C1081       C  0.36748505  0.25018793  0.26703830     0.08100
C1082       C  0.35383686  0.28506803  0.27456053    -0.14100
H1083       H  0.34218799  0.33777908  0.25272653     0.12000
H1084       H  0.39824308  0.26396985  0.17758005     0.12000
H1085       H  0.39571369  0.21610397  0.22651610     0.12000
H1086       H  0.33981987  0.29083542  0.30078067     0.12000
C1087       C  0.25374251  0.39774135  0.19222483    -0.14100
C1088       C  0.29148655  0.39570611  0.20051997     0.08100
C1089       C  0.30337483  0.40087729  0.23774224    -0.14100
C1090       C  0.27755697  0.40252180  0.26701561    -0.14100
C1091       C  0.23971415  0.40061222  0.25899879     0.08100
C1092       C  0.22796972  0.40105631  0.22136178    -0.14100
H1093       H  0.24410206  0.39341479  0.16368501     0.12000
H1094       H  0.33250611  0.39971462  0.24451137     0.12000
H1095       H  0.28711327  0.40170185  0.29592129     0.12000
H1096       H  0.19881177  0.39962722  0.21475102     0.12000
C1097       C  0.23422305  0.26840966  0.10177818    -0.14100
C1098       C  0.24354988  0.23572512  0.12013548     0.08100
C1099       C  0.27927225  0.23133110  0.13452986    -0.14100
C1100       C  0.30417061  0.26023469  0.13396325    -0.14100
C1101       C  0.29374503  0.29407569  0.11909388     0.08100
C1102       C  0.25927659  0.29766961  0.10142560    -0.14100
H1103       H  0.20646718  0.27254403  0.09125779     0.12000
H1104       H  0.28682609  0.20656439  0.14918993     0.12000
H1105       H  0.33055352  0.25705672  0.14790751     0.12000
H1106       H  0.25061579  0.32383322  0.09037414     0.12000
C1107       C  0.39113142  0.39015443  0.10334728    -0.14000
C1108       C  0.41042415  0.41026243  0.08520871    -0.15600
loop_ 
_geom_bond_atom_site_label_1 
_geom_bond_atom_site_label_2 
_geom_bond_distance 
_geom_bond_site_symmetry_2 
_ccdc_geom_bond_type 
C1            C2   1.540       .  S
C1            C7   1.540       .  S
C1            C5   1.541       .  S
C1         C1107   1.462       .  S
C2            H9   1.086       .  S
C2            C3   1.360       .  D
C3            C4   1.531       .  S
C3         C1088   1.472       .  S
C4            C8   1.534       .  S
C4            C6   1.531       .  S
C4           H10   1.113       .  S
C5           H11   1.086       .  S
C5            C6   1.364       .  D
C6         C1078   1.470       .  S
C7           H12   1.086       .  S
C7            C8   1.365       .  D
C8         C1101   1.474       .  S
C13          C14   1.540       .  S
C13          C19   1.544       .  S
C13          C17   1.535       .  S
C13        C1075   1.458       .  S
C14          H21   1.086       .  S
C14          C15   1.361       .  D
C15          C16   1.530       .  S
C15        C1066   1.469       .  S
C16          C20   1.530       .  S
C16          C18   1.534       .  S
C16          H22   1.113       .  S
C17          H23   1.086       .  S
C17          C18   1.361       .  D
C18        C1081   1.466       .  S
C19          H24   1.086       .  S
C19          C20   1.366       .  D
C20        C1056   1.474       .  S
C25          C26   1.544       .  S
C25          C31   1.547       .  S
C25          C29   1.541       .  S
C25        C1053   1.472       .  S
C26          H33   1.086       .  S
C26          C27   1.365       .  D
C27          C28   1.529       .  S
C27        C1098   1.475       .  S
C28          C32   1.531       .  S
C28          C30   1.527       .  S
C28          H34   1.113       .  S
C29          H35   1.086       .  S
C29          C30   1.362       .  D
C30        C1069   1.469       .  S
C31          H36   1.086       .  S
C31          C32   1.369       .  D
C32        C1044   1.478       .  S
C37          C38   1.538       .  S
C37          C43   1.546       .  S
C37          C41   1.541       .  S
C37        C1041   1.469       .  S
C38          H45   1.086       .  S
C38          C39   1.363       .  D
C39          C40   1.532       .  S
C39        C1059   1.471       .  S
C40          C44   1.533       .  S
C40          C42   1.531       .  S
C40          H46   1.112       .  S
C41          H47   1.086       .  S
C41          C42   1.363       .  D
C42        C1091   1.472       .  S
C43          H48   1.086       .  S
C43          C44   1.368       .  D
C44        C1047   1.481       .  S
C49          C50   1.540       .  S
C49          C55   1.544       .  S
C49          C53   1.537       .  S
C49        C1040   1.461       .  S
C50          H57   1.086       .  S
C50          C51   1.362       .  D
C51          C52   1.530       .  S
C51        C1020   1.470       .  S
C52          C56   1.532       .  S
C52          C54   1.533       .  S
C52          H58   1.113       .  S
C53          H59   1.086       .  S
C53          C54   1.362       .  D
C54        C1010   1.469       .  S
C55          H60   1.086       .  S
C55          C56   1.365       .  D
C56        C1030   1.477       .  S
C61          C62   1.549       .  S
C61          C67   1.540       .  S
C61          C65   1.542       .  S
C61        C1008   1.470       .  S
C62          H69   1.086       .  S
C62          C63   1.368       .  D
C63          C64   1.529       .  S
C63         C998   1.479       .  S
C64          C68   1.528       .  S
C64          C66   1.532       .  S
C64          H70   1.113       .  S
C65          H71   1.086       .  S
C65          C66   1.365       .  D
C66        C1033   1.474       .  S
C67          H72   1.086       .  S
C67          C68   1.361       .  D
C68         C988   1.470       .  S
C73          C74   1.541       .  S
C73          C79   1.539       .  S
C73          C77   1.543       .  S
C73         C985   1.467       .  S
C74          H81   1.086       .  S
C74          C75   1.364       .  D
C75          C76   1.534       .  S
C75        C1001   1.475       .  S
C76          C80   1.531       .  S
C76          C78   1.533       .  S
C76          H82   1.112       .  S
C77          H83   1.086       .  S
C77          C78   1.366       .  D
C78         C976   1.477       .  S
C79          H84   1.086       .  S
C79          C80   1.361       .  D
C80        C1023   1.470       .  S
C85          C86   1.541       .  S
C85          C91   1.542       .  S
C85          C89   1.542       .  S
C85         C973   1.463       .  S
C86          H93   1.086       .  S
C86          C87   1.362       .  D
C87          C88   1.528       .  S
C87         C991   1.469       .  S
C88          C92   1.530       .  S
C88          C90   1.530       .  S
C88          H94   1.113       .  S
C89          H95   1.086       .  S
C89          C90   1.364       .  D
C90        C1013   1.472       .  S
C91          H96   1.086       .  S
C91          C92   1.364       .  D
C92         C979   1.473       .  S
N97          N98   1.319       .  A
N97         N103   1.316       .  A
N97        Mn126   2.193   1_554  S
N98         C105   1.349       .  A
N99         N101   1.316       .  A
N99         N100   1.322       .  A
N99        Mn115   2.208       .  S
N100        C106   1.352       .  A
N101        N102   1.319       .  A
N101       Mn126   2.192   1_554  S
N102        C106   1.348       .  A
N103        N104   1.320       .  A
N103       Mn115   2.201       .  S
N104        C105   1.351       .  A
C105       C1108   1.430       .  S
C106        C972   1.433       .  S
N107        N113   1.316       .  A
N107        N108   1.318       .  A
N107       Mn137   2.192   1_554  S
N108        C116   1.348       .  A
N109        N110   1.322       .  A
N109        N111   1.316       .  A
N109       Mn115   2.207       .  S
N110        C117   1.352       .  A
N111        N112   1.320       .  A
N111       Mn137   2.198   1_554  S
N112        C117   1.350       .  A
N113        N114   1.321       .  A
N113       Mn115   2.202       .  S
N114        C116   1.351       .  A
Mn115      Cl139   2.551   1_554  S
C116        C965   1.430       .  S
C117        C961   1.437       .  S
N118        N119   1.319       .  A
N118        N124   1.316       .  A
N118       Mn126   2.192       .  S
N119        C127   1.348       .  A
N120        N122   1.315       .  A
N120        N121   1.320       .  A
N120       Mn138   2.198       .  S
N121        C128   1.350       .  A
N122        N123   1.319       .  A
N122       Mn126   2.194       .  S
N123        C128   1.349       .  A
N124        N125   1.321       .  A
N124       Mn138   2.206       .  S
N125        C127   1.352       .  A
Mn126      Cl139   2.537       .  S
C127        C967   1.432       .  S
C128        C974   1.431       .  S
N129        N130   1.318       .  A
N129        N135   1.316       .  A
N129       Mn137   2.190       .  S
N130        C140   1.348       .  A
N131        N132   1.320       .  A
N131        N133   1.316       .  A
N131       Mn138   2.197       .  S
N132        C141   1.350       .  A
N133        N134   1.319       .  A
N133       Mn137   2.195       .  S
N134        C141   1.349       .  A
N135        N136   1.320       .  A
N135       Mn138   2.201       .  S
N136        C140   1.351       .  A
Mn137      Cl139   2.537       .  S
Mn138      Cl139   2.550       .  S
C140        C969   1.429       .  S
C141        C964   1.430       .  S
C142        C143   1.543       .  S
C142        C148   1.542       .  S
C142        C146   1.538       .  S
C142        C971   1.465       .  S
C143        H150   1.086       .  S
C143        C144   1.366       .  D
C144        C145   1.528       .  S
C144        C952   1.471       .  S
C145        C149   1.528       .  S
C145        C147   1.529       .  S
C145        H151   1.113       .  S
C146        H152   1.086       .  S
C146        C147   1.361       .  D
C147        C932   1.464       .  S
C148        H153   1.086       .  S
C148        C149   1.364       .  D
C149        C942   1.471       .  S
C154        C155   1.543       .  S
C154        C160   1.540       .  S
C154        C158   1.541       .  S
C154        C930   1.467       .  S
C155        H162   1.086       .  S
C155        C156   1.365       .  D
C156        C157   1.530       .  S
C156        C910   1.473       .  S
C157        C161   1.531       .  S
C157        C159   1.531       .  S
C157        H163   1.113       .  S
C158        H164   1.086       .  S
C158        C159   1.364       .  D
C159        C920   1.469       .  S
C160        H165   1.086       .  S
C160        C161   1.363       .  D
C161        C955   1.471       .  S
C166        C167   1.542       .  S
C166        C172   1.539       .  S
C166        C170   1.541       .  S
C166        C907   1.466       .  S
C167        H174   1.086       .  S
C167        C168   1.365       .  D
C168        C169   1.529       .  S
C168        C913   1.471       .  S
C169        C173   1.529       .  S
C169        C171   1.530       .  S
C169        H175   1.113       .  S
C170        H176   1.086       .  S
C170        C171   1.365       .  D
C171        C945   1.471       .  S
C172        H177   1.086       .  S
C172        C173   1.362       .  D
C173        C898   1.465       .  S
C178        C179   1.539       .  S
C178        C184   1.540       .  S
C178        C182   1.536       .  S
C178        C895   1.459       .  S
C179        H186   1.086       .  S
C179        C180   1.363       .  D
C180        C181   1.531       .  S
C180        C901   1.467       .  S
C181        C185   1.530       .  S
C181        C183   1.531       .  S
C181        H187   1.113       .  S
C182        H188   1.086       .  S
C182        C183   1.361       .  D
C183        C935   1.464       .  S
C184        H189   1.086       .  S
C184        C185   1.362       .  D
C185        C923   1.469       .  S
N190        N191   1.318       .  A
N190        N196   1.316       .  A
N190       Mn219   2.185       .  S
N191        C198   1.347       .  A
N192        N194   1.316       .  A
N192        N193   1.320       .  A
N192       Mn208   2.204   1_565  S
N193        C199   1.351       .  A
N194        N195   1.318       .  A
N194       Mn219   2.187   1_565  S
N195        C199   1.348       .  A
N196        N197   1.320       .  A
N196       Mn208   2.199       .  S
N197        C198   1.351       .  A
C198       C1076   1.426       .  S
C199        C896   1.428       .  S
N200        N206   1.316       .  A
N200        N201   1.318       .  A
N200       Mn230   2.190   1_565  S
N201        C209   1.348       .  A
N202        N203   1.321       .  A
N202        N204   1.315       .  A
N202       Mn208   2.203       .  S
N203        C210   1.352       .  A
N204        N205   1.317       .  A
N204       Mn230   2.187       .  S
N205        C210   1.347       .  A
N206        N207   1.321       .  A
N206       Mn208   2.205   1_565  S
N207        C209   1.352       .  A
Mn208      Cl232   2.551       .  S
C209        C890   1.431       .  S
C210        C886   1.429       .  S
N211        N212   1.318       .  A
N211        N217   1.315       .  A
N211       Mn219   2.187   1_565  S
N212        C220   1.348       .  A
N213        N215   1.315       .  A
N213        N214   1.321       .  A
N213       Mn231   2.203       .  S
N214        C221   1.352       .  A
N215        N216   1.318       .  A
N215       Mn219   2.188       .  S
N216        C221   1.348       .  A
N217        N218   1.319       .  A
N217       Mn231   2.192   1_565  S
N218        C220   1.349       .  A
Mn219      Cl232   2.533       .  S
C220        C892   1.425       .  S
C221       C1039   1.430       .  S
N222        N223   1.318       .  A
N222        N228   1.315       .  A
N222       Mn230   2.186       .  S
N223        C233   1.347       .  A
N224        N225   1.320       .  A
N224        N226   1.316       .  A
N224       Mn231   2.202   1_565  S
N225        C234   1.351       .  A
N226        N227   1.319       .  A
N226       Mn230   2.192   1_565  S
N227        C234   1.349       .  A
N228        N229   1.320       .  A
N228       Mn231   2.194       .  S
N229        C233   1.351       .  A
Mn230      Cl232   2.533       .  S
Mn231      Cl232   2.549       .  S
C233        C894   1.426       .  S
C234        C888   1.431       .  S
C235        C236   1.540       .  S
C235        C241   1.540       .  S
C235        C239   1.536       .  S
C235        C970   1.460       .  S
C236        H243   1.086       .  S
C236        C237   1.363       .  D
C237        C238   1.530       .  S
C237        C876   1.469       .  S
C238        C242   1.530       .  S
C238        C240   1.530       .  S
C238        H244   1.113       .  S
C239        H245   1.086       .  S
C239        C240   1.361       .  D
C240        C856   1.464       .  S
C241        H246   1.086       .  S
C241        C242   1.364       .  D
C242        C866   1.468       .  S
C247        C248   1.540       .  S
C247        C253   1.543       .  S
C247        C251   1.541       .  S
C247        C854   1.468       .  S
C248        H255   1.086       .  S
C248        C249   1.363       .  D
C249        C250   1.530       .  S
C249        C834   1.468       .  S
C250        C254   1.529       .  S
C250        C252   1.529       .  S
C250        H256   1.113       .  S
C251        H257   1.086       .  S
C251        C252   1.364       .  D
C252        C879   1.469       .  S
C253        H258   1.086       .  S
C253        C254   1.365       .  D
C254        C844   1.472       .  S
C259        C260   1.542       .  S
C259        C265   1.539       .  S
C259        C263   1.535       .  S
C259        C893   1.458       .  S
C260        H267   1.086       .  S
C260        C261   1.364       .  D
C261        C262   1.530       .  S
C261        C824   1.471       .  S
C262        C266   1.531       .  S
C262        C264   1.531       .  S
C262        H268   1.113       .  S
C263        H269   1.086       .  S
C263        C264   1.360       .  D
C264        C859   1.463       .  S
C265        H270   1.086       .  S
C265        C266   1.363       .  D
C266        C837   1.467       .  S
C271        C272   1.539       .  S
C271        C277   1.544       .  S
C271        C275   1.542       .  S
C271        C821   1.470       .  S
C272        H279   1.086       .  S
C272        C273   1.362       .  D
C273        C274   1.530       .  S
C273        C869   1.468       .  S
C274        C278   1.529       .  S
C274        C276   1.530       .  S
C274        H280   1.113       .  S
C275        H281   1.086       .  S
C275        C276   1.365       .  D
C276        C827   1.471       .  S
C277        H282   1.086       .  S
C277        C278   1.366       .  D
C278        C847   1.472       .  S
C283        C284   1.537       .  S
C283        C289   1.542       .  S
C283        C287   1.543       .  S
C283        C968   1.464       .  S
C284        H291   1.086       .  S
C284        C285   1.360       .  D
C285        C286   1.529       .  S
C285        C812   1.463       .  S
C286        C290   1.528       .  S
C286        C288   1.529       .  S
C286        H292   1.113       .  S
C287        H293   1.086       .  S
C287        C288   1.366       .  D
C288        C802   1.472       .  S
C289        H294   1.086       .  S
C289        C290   1.364       .  D
C290        C792   1.469       .  S
C295        C296   1.536       .  S
C295        C301   1.539       .  S
C295        C299   1.539       .  S
C295        C891   1.456       .  S
C296        H303   1.086       .  S
C296        C297   1.361       .  D
C297        C298   1.532       .  S
C297        C815   1.463       .  S
C298        C302   1.531       .  S
C298        C300   1.531       .  S
C298        H304   1.112       .  S
C299        H305   1.086       .  S
C299        C300   1.363       .  D
C300        C772   1.469       .  S
C301        H306   1.086       .  S
C301        C302   1.362       .  D
C302        C782   1.468       .  S
C307        C308   1.542       .  S
C307        C313   1.544       .  S
C307        C311   1.541       .  S
C307        C769   1.471       .  S
C308        H315   1.086       .  S
C308        C309   1.365       .  D
C309        C310   1.529       .  S
C309        C775   1.469       .  S
C310        C314   1.529       .  S
C310        C312   1.529       .  S
C310        H316   1.113       .  S
C311        H317   1.086       .  S
C311        C312   1.364       .  D
C312        C795   1.469       .  S
C313        H318   1.086       .  S
C313        C314   1.366       .  D
C314        C760   1.473       .  S
C319        C320   1.542       .  S
C319        C325   1.542       .  S
C319        C323   1.541       .  S
C319        C758   1.471       .  S
C320        H327   1.086       .  S
C320        C321   1.365       .  D
C321        C322   1.530       .  S
C321        C805   1.473       .  S
C322        C326   1.529       .  S
C322        C324   1.529       .  S
C322        H328   1.113       .  S
C323        H329   1.086       .  S
C323        C324   1.364       .  D
C324        C785   1.469       .  S
C325        H330   1.086       .  S
C325        C326   1.365       .  D
C326        C763   1.472       .  S
C331        C332   1.541       .  S
C331        C337   1.540       .  S
C331        C335   1.543       .  S
C331        C889   1.463       .  S
C332        H339   1.086       .  S
C332        C333   1.363       .  D
C333        C334   1.529       .  S
C333        C731   1.470       .  S
C334        C338   1.530       .  S
C334        C336   1.528       .  S
C334        H340   1.113       .  S
C335        H341   1.086       .  S
C335        C336   1.364       .  D
C336        C748   1.470       .  S
C337        H342   1.086       .  S
C337        C338   1.363       .  D
C338        C741   1.469       .  S
C343        C344   1.540       .  S
C343        C349   1.547       .  S
C343        C347   1.544       .  S
C343        C725   1.471       .  S
C344        H351   1.086       .  S
C344        C345   1.361       .  D
C345        C346   1.528       .  S
C345        C751   1.469       .  S
C346        C350   1.528       .  S
C346        C348   1.532       .  S
C346        H352   1.113       .  S
C347        H353   1.086       .  S
C347        C348   1.367       .  D
C348        C706   1.476       .  S
C349        H354   1.086       .  S
C349        C350   1.367       .  D
C350        C716   1.476       .  S
C355        C356   1.545       .  S
C355        C361   1.539       .  S
C355        C359   1.536       .  S
C355        C966   1.462       .  S
C356        H363   1.086       .  S
C356        C357   1.366       .  D
C357        C358   1.532       .  S
C357        C709   1.479       .  S
C358        C362   1.532       .  S
C358        C360   1.534       .  S
C358        H364   1.113       .  S
C359        H365   1.086       .  S
C359        C360   1.361       .  D
C360        C728   1.468       .  S
C361        H366   1.086       .  S
C361        C362   1.362       .  D
C362        C696   1.470       .  S
C367        C368   1.539       .  S
C367        C373   1.541       .  S
C367        C371   1.541       .  S
C367        C693   1.466       .  S
C368        H375   1.086       .  S
C368        C369   1.361       .  D
C369        C370   1.531       .  S
C369        C699   1.470       .  S
C370        C374   1.532       .  S
C370        C372   1.532       .  S
C370        H376   1.113       .  S
C371        H377   1.086       .  S
C371        C372   1.366       .  D
C372        C738   1.472       .  S
C373        H378   1.086       .  S
C373        C374   1.364       .  D
C374        C719   1.473       .  S
C379        C380   1.541       .  S
C379        C385   1.539       .  S
C379        C383   1.539       .  S
C379        C963   1.461       .  S
C380        H387   1.086       .  S
C380        C381   1.364       .  D
C381        C382   1.530       .  S
C381        C684   1.469       .  S
C382        C386   1.530       .  S
C382        C384   1.530       .  S
C382        H388   1.113       .  S
C383        H389   1.086       .  S
C383        C384   1.362       .  D
C384        C664   1.466       .  S
C385        H390   1.086       .  S
C385        C386   1.362       .  D
C386        C674   1.467       .  S
C391        C392   1.544       .  S
C391        C397   1.540       .  S
C391        C395   1.540       .  S
C391        C661   1.466       .  S
C392        H399   1.086       .  S
C392        C393   1.366       .  D
C393        C394   1.528       .  S
C393        C652   1.474       .  S
C394        C398   1.528       .  S
C394        C396   1.528       .  S
C394        H400   1.113       .  S
C395        H401   1.086       .  S
C395        C396   1.363       .  D
C396        C677   1.467       .  S
C397        H402   1.086       .  S
C397        C398   1.363       .  D
C398        C642   1.467       .  S
C403        C404   1.540       .  S
C403        C409   1.540       .  S
C403        C407   1.539       .  S
C403        C887   1.463       .  S
C404        H411   1.086       .  S
C404        C405   1.364       .  D
C405        C406   1.530       .  S
C405        C645   1.469       .  S
C406        C410   1.530       .  S
C406        C408   1.530       .  S
C406        H412   1.113       .  S
C407        H413   1.086       .  S
C407        C408   1.362       .  D
C408        C667   1.466       .  S
C409        H414   1.086       .  S
C409        C410   1.363       .  D
C410        C632   1.469       .  S
C415        C416   1.545       .  S
C415        C421   1.541       .  S
C415        C419   1.543       .  S
C415        C629   1.474       .  S
C416        H423   1.086       .  S
C416        C417   1.366       .  D
C417        C418   1.529       .  S
C417        C655   1.474       .  S
C418        C422   1.529       .  S
C418        C420   1.529       .  S
C418        H424   1.113       .  S
C419        H425   1.086       .  S
C419        C420   1.365       .  D
C420        C635   1.470       .  S
C421        H426   1.086       .  S
C421        C422   1.364       .  D
C422        C687   1.469       .  S
N427        N428   1.322       .  A
N427        N433   1.318       .  A
N427       Mn456   2.207       .  S
N428        C435   1.351       .  A
N429        N431   1.317       .  A
N429        N430   1.322       .  A
N429       Mn445   2.209   1_654  S
N430        C436   1.352       .  A
N431        N432   1.320       .  A
N431       Mn456   2.199   1_655  S
N432        C436   1.349       .  A
N433        N434   1.322       .  A
N433       Mn445   2.211   1_554  S
N434        C435   1.351       .  A
C435       C1054   1.440       .  S
C436        C627   1.437       .  S
N437        N443   1.318       .  A
N437        N438   1.321       .  A
N437       Mn467   2.203   1_655  S
N438        C446   1.350       .  A
N439        N440   1.321       .  A
N439        N441   1.318       .  A
N439       Mn445   2.208       .  S
N440        C447   1.351       .  A
N441        N442   1.321       .  A
N441       Mn467   2.204       .  S
N442        C447   1.351       .  A
N443        N444   1.322       .  A
N443       Mn445   2.212   1_655  S
N444        C446   1.352       .  A
Mn445      Cl469   2.550       .  S
C446        C822   1.438       .  S
C447       C1007   1.438       .  S
N448        N449   1.321       .  A
N448        N454   1.317       .  A
N448       Mn456   2.205   1_665  S
N449        C457   1.351       .  A
N450        N452   1.317       .  A
N450        N451   1.321       .  A
N450       Mn468   2.205   1_554  S
N451        C458   1.351       .  A
N452        N453   1.320       .  A
N452       Mn456   2.200   1_565  S
N453        C458   1.350       .  A
N454        N455   1.320       .  A
N454       Mn468   2.200   1_654  S
N455        C457   1.350       .  A
Mn456      Cl469   2.549   1_554  S
C457        C694   1.434       .  S
C458        C929   1.435       .  S
N459        N460   1.321       .  A
N459        N465   1.316       .  A
N459       Mn467   2.207   1_565  S
N460        C470   1.352       .  A
N461        N462   1.322       .  A
N461        N463   1.317       .  A
N461       Mn468   2.210   1_655  S
N462        C471   1.352       .  A
N463        N464   1.322       .  A
N463       Mn467   2.210   1_665  S
N464        C471   1.352       .  A
N465        N466   1.321       .  A
N465       Mn468   2.204       .  S
N466        C470   1.351       .  A
Mn467      Cl469   2.550       .  S
Mn468      Cl469   2.551   1_565  S
C470        C757   1.438       .  S
C471        C630   1.442       .  S
C472        C473   1.538       .  S
C472        C478   1.540       .  S
C472        C476   1.538       .  S
C472        C885   1.461       .  S
C473        H480   1.086       .  S
C473        C474   1.364       .  D
C474        C475   1.534       .  S
C474        C608   1.471       .  S
C475        C479   1.533       .  S
C475        C477   1.537       .  S
C475        H481   1.112       .  S
C476        H482   1.086       .  S
C476        C477   1.364       .  D
C477        C598   1.474       .  S
C478        H483   1.086       .  S
C478        C479   1.362       .  D
C479        C618   1.475       .  S
C484        C485   1.546       .  S
C484        C490   1.536       .  S
C484        C488   1.541       .  S
C484        C628   1.469       .  S
C485        H492   1.086       .  S
C485        C486   1.370       .  D
C486        C487   1.538       .  S
C486        C588   1.486       .  S
C487        C491   1.534       .  S
C487        C489   1.533       .  S
C487        H493   1.112       .  S
C488        H494   1.086       .  S
C488        C489   1.363       .  D
C489        C621   1.475       .  S
C490        H495   1.086       .  S
C490        C491   1.361       .  D
C491        C578   1.472       .  S
C496        C497   1.546       .  S
C496        C502   1.540       .  S
C496        C500   1.543       .  S
C496        C962   1.468       .  S
C497        H504   1.086       .  S
C497        C498   1.366       .  D
C498        C499   1.526       .  S
C498        C581   1.474       .  S
C499        C503   1.526       .  S
C499        C501   1.534       .  S
C499        H505   1.112       .  S
C500        H506   1.086       .  S
C500        C501   1.367       .  D
C501        C601   1.476       .  S
C502        H507   1.086       .  S
C502        C503   1.361       .  D
C503        C571   1.470       .  S
C508        C509   1.547       .  S
C508        C514   1.542       .  S
C508        C512   1.540       .  S
C508        C566   1.467       .  S
C509        H516   1.086       .  S
C509        C510   1.370       .  D
C510        C511   1.534       .  S
C510        C591   1.481       .  S
C511        C515   1.527       .  S
C511        C513   1.525       .  S
C511        H517   1.112       .  S
C512        H518   1.086       .  S
C512        C513   1.361       .  D
C513        C568   1.468       .  S
C514        H519   1.086       .  S
C514        C515   1.362       .  D
C515        C611   1.471       .  S
N520        N521   1.320       .  A
N520        N526   1.316       .  A
N520       Mn549   2.200       .  S
N521        C528   1.350       .  A
N522        N524   1.317       .  A
N522        N523   1.321       .  A
N522       Mn538   2.201   1_655  S
N523        C529   1.350       .  A
N524        N525   1.322       .  A
N524       Mn549   2.212   1_655  S
N525        C529   1.352       .  A
N526        N527   1.320       .  A
N526       Mn538   2.200       .  S
N527        C528   1.350       .  A
C528        C908   1.434       .  S
C529        C726   1.439       .  S
N530        N536   1.317       .  A
N530        N531   1.320       .  A
N530       Mn560   2.201   1_655  S
N531        C539   1.350       .  A
N532        N533   1.320       .  A
N532        N534   1.317       .  A
N532       Mn538   2.200       .  S
N533        C540   1.350       .  A
N534        N535   1.322       .  A
N534       Mn560   2.208       .  S
N535        C540   1.352       .  A
N536        N537   1.321       .  A
N536       Mn538   2.201   1_655  S
N537        C539   1.350       .  A
Mn538      Cl562   2.548       .  S
C539        C565   1.435       .  S
C540       C1042   1.437       .  S
N541        N542   1.320       .  A
N541        N547   1.317       .  A
N541       Mn549   2.201   1_655  S
N542        C550   1.350       .  A
N543        N545   1.317       .  A
N543        N544   1.322       .  A
N543       Mn561   2.210       .  S
N544        C551   1.352       .  A
N545        N546   1.321       .  A
N545       Mn549   2.208       .  S
N546        C551   1.351       .  A
N547        N548   1.320       .  A
N547       Mn561   2.200   1_655  S
N548        C550   1.350       .  A
Mn549      Cl562   2.547       .  S
C550        C662   1.434       .  S
C551        C770   1.440       .  S
N552        N553   1.320       .  A
N552        N558   1.317       .  A
N552       Mn560   2.202       .  S
N553        C563   1.350       .  A
N554        N555   1.321       .  A
N554        N556   1.317       .  A
N554       Mn561   2.206   1_655  S
N555        C564   1.351       .  A
N556        N557   1.320       .  A
N556       Mn560   2.203   1_655  S
N557        C564   1.350       .  A
N558        N559   1.321       .  A
N558       Mn561   2.204       .  S
N559        C563   1.351       .  A
Mn560      Cl562   2.546       .  S
Mn561      Cl562   2.551       .  S
C563        C986   1.435       .  S
C564        C853   1.436       .  S
C565        C566   1.206       .  T
C567        C568   1.402       .  A
C567        C572   1.397       .  A
C567        H573   1.084       .  S
C568        C569   1.401       .  A
C569        C570   1.398       .  A
C569        H574   1.083       .  S
C570        C571   1.402       .  A
C570        H575   1.084       .  S
C571        C572   1.401       .  A
C572        H576   1.083       .  S
C577        C578   1.402       .  A
C577        C582   1.402       .  A
C577        H583   1.083       .  S
C578        C579   1.401       .  A
C579        C580   1.395       .  A
C579        H584   1.084       .  S
C580        C581   1.401       .  A
C580        H585   1.083       .  S
C581        C582   1.405       .  A
C582        H586   1.083       .  S
C587        C588   1.408       .  A
C587        C592   1.410       .  A
C587        H593   1.083       .  S
C588        C589   1.401       .  A
C589        C590   1.386       .  A
C589        H594   1.077       .  S
C590        C591   1.400       .  A
C590        H595   1.083       .  S
C591        C592   1.407       .  A
C592        H596   1.083       .  S
C597        C598   1.406       .  A
C597        C602   1.406       .  A
C597        H603   1.083       .  S
C598        C599   1.397       .  A
C599        C600   1.383       .  A
C599        H604   1.080       .  S
C600        C601   1.400       .  A
C600        H605   1.080       .  S
C601        C602   1.405       .  A
C602        H606   1.083       .  S
C607        C608   1.402       .  A
C607        C612   1.401       .  A
C607        H613   1.083       .  S
C608        C609   1.401       .  A
C609        C610   1.394       .  A
C609        H614   1.084       .  S
C610        C611   1.401       .  A
C610        H615   1.083       .  S
C611        C612   1.404       .  A
C612        H616   1.083       .  S
C617        C618   1.401       .  A
C617        C622   1.400       .  A
C617        H623   1.083       .  S
C618        C619   1.404       .  A
C619        C620   1.400       .  A
C619        H624   1.083       .  S
C620        C621   1.401       .  A
C620        H625   1.083       .  S
C621        C622   1.404       .  A
C622        H626   1.083       .  S
C627        C628   1.206       .  T
C629        C630   1.210       .  T
C631        C632   1.402       .  A
C631        C636   1.400       .  A
C631        H637   1.083       .  S
C632        C633   1.400       .  A
C633        C634   1.396       .  A
C633        H638   1.083       .  S
C634        C635   1.401       .  A
C634        H639   1.082       .  S
C635        C636   1.402       .  A
C636        H640   1.083       .  S
C641        C642   1.401       .  A
C641        C646   1.397       .  A
C641        H647   1.083       .  S
C642        C643   1.401       .  A
C643        C644   1.398       .  A
C643        H648   1.083       .  S
C644        C645   1.401       .  A
C644        H649   1.082       .  S
C645        C646   1.401       .  A
C646        H650   1.082       .  S
C651        C652   1.402       .  A
C651        C656   1.399       .  A
C651        H657   1.082       .  S
C652        C653   1.402       .  A
C653        C654   1.400       .  A
C653        H658   1.083       .  S
C654        C655   1.402       .  A
C654        H659   1.082       .  S
C655        C656   1.402       .  A
C656        H660   1.083       .  S
C661        C662   1.205       .  T
C663        C664   1.401       .  A
C663        C668   1.396       .  A
C663        H669   1.083       .  S
C664        C665   1.401       .  A
C665        C666   1.397       .  A
C665        H670   1.082       .  S
C666        C667   1.401       .  A
C666        H671   1.083       .  S
C667        C668   1.400       .  A
C668        H672   1.083       .  S
C673        C674   1.402       .  A
C673        C678   1.399       .  A
C673        H679   1.083       .  S
C674        C675   1.399       .  A
C675        C676   1.394       .  A
C675        H680   1.083       .  S
C676        C677   1.400       .  A
C676        H681   1.081       .  S
C677        C678   1.402       .  A
C678        H682   1.083       .  S
C683        C684   1.402       .  A
C683        C688   1.400       .  A
C683        H689   1.083       .  S
C684        C685   1.400       .  A
C685        C686   1.395       .  A
C685        H690   1.082       .  S
C686        C687   1.400       .  A
C686        H691   1.082       .  S
C687        C688   1.402       .  A
C688        H692   1.083       .  S
C693        C694   1.205       .  T
C695        C696   1.401       .  A
C695        C700   1.398       .  A
C695        H701   1.084       .  S
C696        C697   1.402       .  A
C697        C698   1.398       .  A
C697        H702   1.083       .  S
C698        C699   1.400       .  A
C698        H703   1.084       .  S
C699        C700   1.402       .  A
C700        H704   1.083       .  S
C705        C706   1.400       .  A
C705        C710   1.389       .  A
C705        H711   1.081       .  S
C706        C707   1.404       .  A
C707        C708   1.407       .  A
C707        H712   1.083       .  S
C708        C709   1.407       .  A
C708        H713   1.083       .  S
C709        C710   1.399       .  A
C710        H714   1.079       .  S
C715        C716   1.405       .  A
C715        C720   1.404       .  A
C715        H721   1.083       .  S
C716        C717   1.401       .  A
C717        C718   1.394       .  A
C717        H722   1.082       .  S
C718        C719   1.400       .  A
C718        H723   1.083       .  S
C719        C720   1.403       .  A
C720        H724   1.083       .  S
C725        C726   1.208       .  T
C727        C728   1.399       .  A
C727        C732   1.388       .  A
C727        H733   1.082       .  S
C728        C729   1.402       .  A
C729        C730   1.403       .  A
C729        H734   1.083       .  S
C730        C731   1.405       .  A
C730        H735   1.083       .  S
C731        C732   1.399       .  A
C732        H736   1.081       .  S
C737        C738   1.400       .  A
C737        C742   1.390       .  A
C737        H743   1.081       .  S
C738        C739   1.405       .  A
C739        C740   1.403       .  A
C739        H744   1.083       .  S
C740        C741   1.403       .  A
C740        H745   1.083       .  S
C741        C742   1.399       .  A
C742        H746   1.082       .  S
C747        C748   1.402       .  A
C747        C752   1.397       .  A
C747        H753   1.082       .  S
C748        C749   1.402       .  A
C749        C750   1.399       .  A
C749        H754   1.084       .  S
C750        C751   1.402       .  A
C750        H755   1.082       .  S
C751        C752   1.400       .  A
C752        H756   1.084       .  S
C757        C758   1.208       .  T
C759        C760   1.402       .  A
C759        C764   1.399       .  A
C759        H765   1.082       .  S
C760        C761   1.402       .  A
C761        C762   1.399       .  A
C761        H766   1.082       .  S
C762        C763   1.402       .  A
C762        H767   1.083       .  S
C763        C764   1.402       .  A
C764        H768   1.083       .  S
C769        C770   1.208       .  T
C771        C772   1.400       .  A
C771        C776   1.396       .  A
C771        H777   1.082       .  S
C772        C773   1.401       .  A
C773        C774   1.399       .  A
C773        H778   1.083       .  S
C774        C775   1.402       .  A
C774        H779   1.083       .  S
C775        C776   1.401       .  A
C776        H780   1.082       .  S
C781        C782   1.401       .  A
C781        C786   1.397       .  A
C781        H787   1.083       .  S
C782        C783   1.401       .  A
C783        C784   1.398       .  A
C783        H788   1.083       .  S
C784        C785   1.402       .  A
C784        H789   1.083       .  S
C785        C786   1.401       .  A
C786        H790   1.082       .  S
C791        C792   1.402       .  A
C791        C796   1.399       .  A
C791        H797   1.082       .  S
C792        C793   1.401       .  A
C793        C794   1.397       .  A
C793        H798   1.083       .  S
C794        C795   1.401       .  A
C794        H799   1.082       .  S
C795        C796   1.402       .  A
C796        H800   1.083       .  S
C801        C802   1.403       .  A
C801        C806   1.400       .  A
C801        H807   1.083       .  S
C802        C803   1.401       .  A
C803        C804   1.397       .  A
C803        H808   1.082       .  S
C804        C805   1.401       .  A
C804        H809   1.081       .  S
C805        C806   1.402       .  A
C806        H810   1.083       .  S
C811        C812   1.400       .  A
C811        C816   1.394       .  A
C811        H817   1.082       .  S
C812        C813   1.401       .  A
C813        C814   1.397       .  A
C813        H818   1.083       .  S
C814        C815   1.401       .  A
C814        H819   1.083       .  S
C815        C816   1.400       .  A
C816        H820   1.083       .  S
C821        C822   1.207       .  T
C823        C824   1.402       .  A
C823        C828   1.399       .  A
C823        H829   1.082       .  S
C824        C825   1.401       .  A
C825        C826   1.398       .  A
C825        H830   1.083       .  S
C826        C827   1.402       .  A
C826        H831   1.082       .  S
C827        C828   1.402       .  A
C828        H832   1.083       .  S
C833        C834   1.401       .  A
C833        C838   1.397       .  A
C833        H839   1.082       .  S
C834        C835   1.401       .  A
C835        C836   1.398       .  A
C835        H840   1.083       .  S
C836        C837   1.402       .  A
C836        H841   1.083       .  S
C837        C838   1.401       .  A
C838        H842   1.083       .  S
C843        C844   1.402       .  A
C843        C848   1.399       .  A
C843        H849   1.082       .  S
C844        C845   1.401       .  A
C845        C846   1.399       .  A
C845        H850   1.083       .  S
C846        C847   1.402       .  A
C846        H851   1.082       .  S
C847        C848   1.402       .  A
C848        H852   1.083       .  S
C853        C854   1.206       .  T
C855        C856   1.400       .  A
C855        C860   1.394       .  A
C855        H861   1.083       .  S
C856        C857   1.401       .  A
C857        C858   1.397       .  A
C857        H862   1.083       .  S
C858        C859   1.400       .  A
C858        H863   1.083       .  S
C859        C860   1.400       .  A
C860        H864   1.082       .  S
C865        C866   1.401       .  A
C865        C870   1.397       .  A
C865        H871   1.083       .  S
C866        C867   1.401       .  A
C867        C868   1.397       .  A
C867        H872   1.082       .  S
C868        C869   1.401       .  A
C868        H873   1.083       .  S
C869        C870   1.401       .  A
C870        H874   1.083       .  S
C875        C876   1.401       .  A
C875        C880   1.397       .  A
C875        H881   1.082       .  S
C876        C877   1.401       .  A
C877        C878   1.398       .  A
C877        H882   1.083       .  S
C878        C879   1.402       .  A
C878        H883   1.082       .  S
C879        C880   1.401       .  A
C880        H884   1.082       .  S
C885        C886   1.202       .  T
C887        C888   1.203       .  T
C889        C890   1.203       .  T
C891        C892   1.199       .  T
C893        C894   1.200       .  T
C895        C896   1.201       .  T
C897        C898   1.401       .  A
C897        C902   1.396       .  A
C897        H903   1.084       .  S
C898        C899   1.401       .  A
C899        C900   1.397       .  A
C899        H904   1.082       .  S
C900        C901   1.401       .  A
C900        H905   1.083       .  S
C901        C902   1.401       .  A
C902        H906   1.082       .  S
C907        C908   1.205       .  T
C909        C910   1.400       .  A
C909        C914   1.397       .  A
C909        H915   1.082       .  S
C910        C911   1.403       .  A
C911        C912   1.400       .  A
C911        H916   1.081       .  S
C912        C913   1.402       .  A
C912        H917   1.083       .  S
C913        C914   1.401       .  A
C914        H918   1.082       .  S
C919        C920   1.401       .  A
C919        C924   1.395       .  A
C919        H925   1.081       .  S
C920        C921   1.402       .  A
C921        C922   1.400       .  A
C921        H926   1.083       .  S
C922        C923   1.402       .  A
C922        H927   1.083       .  S
C923        C924   1.400       .  A
C924        H928   1.082       .  S
C929        C930   1.206       .  T
C931        C932   1.402       .  A
C931        C936   1.398       .  A
C931        H937   1.083       .  S
C932        C933   1.400       .  A
C933        C934   1.393       .  A
C933        H938   1.082       .  S
C934        C935   1.400       .  A
C934        H939   1.082       .  S
C935        C936   1.401       .  A
C936        H940   1.083       .  S
C941        C942   1.401       .  A
C941        C946   1.397       .  A
C941        H947   1.083       .  S
C942        C943   1.402       .  A
C943        C944   1.399       .  A
C943        H948   1.083       .  S
C944        C945   1.402       .  A
C944        H949   1.082       .  S
C945        C946   1.401       .  A
C946        H950   1.082       .  S
C951        C952   1.403       .  A
C951        C956   1.400       .  A
C951        H957   1.083       .  S
C952        C953   1.401       .  A
C953        C954   1.397       .  A
C953        H958   1.083       .  S
C954        C955   1.400       .  A
C954        H959   1.082       .  S
C955        C956   1.402       .  A
C956        H960   1.083       .  S
C961        C962   1.206       .  T
C963        C964   1.202       .  T
C965        C966   1.203       .  T
C967        C968   1.204       .  T
C969        C970   1.202       .  T
C971        C972   1.205       .  T
C973        C974   1.203       .  T
C975        C976   1.406       .  A
C975        C980   1.406       .  A
C975        H981   1.083       .  S
C976        C977   1.401       .  A
C977        C978   1.390       .  A
C977        H982   1.079       .  S
C978        C979   1.400       .  A
C978        H983   1.083       .  S
C979        C980   1.404       .  A
C980        H984   1.083       .  S
C985        C986   1.206       .  T
C987        C988   1.402       .  A
C987        C992   1.398       .  A
C987        H993   1.082       .  S
C988        C989   1.401       .  A
C989        C990   1.397       .  A
C989        H994   1.083       .  S
C990        C991   1.402       .  A
C990        H995   1.083       .  S
C991        C992   1.401       .  A
C992        H996   1.083       .  S
C997        C998   1.401       .  A
C997       C1002   1.391       .  A
C997       H1003   1.080       .  S
C998        C999   1.406       .  A
C999       C1000   1.407       .  A
C999       H1004   1.083       .  S
C1000      C1001   1.404       .  A
C1000      H1005   1.083       .  S
C1001      C1002   1.399       .  A
C1002      H1006   1.083       .  S
C1007      C1008   1.207       .  T
C1009      C1010   1.403       .  A
C1009      C1014   1.404       .  A
C1009      H1015   1.083       .  S
C1010      C1011   1.399       .  A
C1011      C1012   1.388       .  A
C1011      H1016   1.083       .  S
C1012      C1013   1.400       .  A
C1012      H1017   1.080       .  S
C1013      C1014   1.405       .  A
C1014      H1018   1.083       .  S
C1019      C1020   1.401       .  A
C1019      C1024   1.398       .  A
C1019      H1025   1.083       .  S
C1020      C1021   1.402       .  A
C1021      C1022   1.398       .  A
C1021      H1026   1.083       .  S
C1022      C1023   1.400       .  A
C1022      H1027   1.083       .  S
C1023      C1024   1.402       .  A
C1024      H1028   1.083       .  S
C1029      C1030   1.407       .  A
C1029      C1034   1.406       .  A
C1029      H1035   1.083       .  S
C1030      C1031   1.399       .  A
C1031      C1032   1.388       .  A
C1031      H1036   1.080       .  S
C1032      C1033   1.400       .  A
C1032      H1037   1.081       .  S
C1033      C1034   1.404       .  A
C1034      H1038   1.083       .  S
C1039      C1040   1.202       .  T
C1041      C1042   1.207       .  T
C1043      C1044   1.405       .  A
C1043      C1048   1.408       .  A
C1043      H1049   1.083       .  S
C1044      C1045   1.400       .  A
C1045      C1046   1.390       .  A
C1045      H1050   1.083       .  S
C1046      C1047   1.400       .  A
C1046      H1051   1.078       .  S
C1047      C1048   1.406       .  A
C1048      H1052   1.083       .  S
C1053      C1054   1.209       .  T
C1055      C1056   1.405       .  A
C1055      C1060   1.403       .  A
C1055      H1061   1.083       .  S
C1056      C1057   1.401       .  A
C1057      C1058   1.393       .  A
C1057      H1062   1.080       .  S
C1058      C1059   1.400       .  A
C1058      H1063   1.083       .  S
C1059      C1060   1.402       .  A
C1060      H1064   1.083       .  S
C1065      C1066   1.401       .  A
C1065      C1070   1.396       .  A
C1065      H1071   1.081       .  S
C1066      C1067   1.401       .  A
C1067      C1068   1.399       .  A
C1067      H1072   1.083       .  S
C1068      C1069   1.402       .  A
C1068      H1073   1.083       .  S
C1069      C1070   1.401       .  A
C1070      H1074   1.084       .  S
C1075      C1076   1.201       .  T
C1077      C1078   1.399       .  A
C1077      C1082   1.386       .  A
C1077      H1083   1.079       .  S
C1078      C1079   1.405       .  A
C1079      C1080   1.403       .  A
C1079      H1084   1.083       .  S
C1080      C1081   1.403       .  A
C1080      H1085   1.083       .  S
C1081      C1082   1.397       .  A
C1082      H1086   1.081       .  S
C1087      C1088   1.400       .  A
C1087      C1092   1.398       .  A
C1087      H1093   1.083       .  S
C1088      C1089   1.403       .  A
C1089      C1090   1.399       .  A
C1089      H1094   1.083       .  S
C1090      C1091   1.401       .  A
C1090      H1095   1.083       .  S
C1091      C1092   1.402       .  A
C1092      H1096   1.083       .  S
C1097      C1098   1.406       .  A
C1097      C1102   1.405       .  A
C1097      H1103   1.083       .  S
C1098      C1099   1.400       .  A
C1099      C1100   1.391       .  A
C1099      H1104   1.082       .  S
C1100      C1101   1.400       .  A
C1100      H1105   1.082       .  S
C1101      C1102   1.403       .  A
C1102      H1106   1.083       .  S
C1107      C1108   1.202       .  T
