geometry optimzed in LAMMPS
_audit_creation_date              2020-11-30 
_audit_creation_method            'lammps2cif' 
_symmetry_space_group_name_H-M    'P1' 
_symmetry_Int_Tables_number       1 
_symmetry_cell_setting            triclinic 
loop_ 
_symmetry_equiv_pos_as_xyz 
  x,y,z 
_cell_length_a                    44.97588503 
_cell_length_b                    42.04188057683838 
_cell_length_c                    23.145404900487318 
_cell_angle_alpha                 90.0077043187702 
_cell_angle_beta                  88.37977348966315 
_cell_angle_gamma                 89.97338213481396 
loop_ 
_atom_site_label 
_atom_site_type_symbol 
_atom_site_fract_x 
_atom_site_fract_y 
_atom_site_fract_z 
_atom_site_charge 
C1          C  0.77057650  0.24997260  0.25136561    -0.02600
C2          C  0.76660687  0.25041133  0.75104027    -0.02600
O3          O  0.77827258  0.41395849  0.44889142    -0.85400
O4          O  0.80447122  0.35766266  0.41462162    -0.82500
C5          C  0.82332994  0.33555583  0.40817101     0.98000
O6          O  0.84303851  0.33111059  0.44573447    -0.82500
O7          O  0.88196920  0.38169092  0.42699671    -0.85100
C8          C  0.89061675  0.41029995  0.42668600     1.02600
O9          O  0.87686168  0.43134425  0.45571044    -0.77900
O10         O  0.81892557  0.43826034  0.41944964    -0.78100
C11         C  0.79162069  0.43259579  0.41418553     1.02500
O12         O  0.78399389  0.39556333  0.56807762    -0.85400
O13         O  0.80340714  0.33600222  0.53059652    -0.82500
C14         C  0.81984912  0.33286120  0.57334454     0.98100
O15         O  0.84541728  0.34499199  0.57111271    -0.82500
O16         O  0.88682743  0.39157450  0.54690425    -0.85100
C17         C  0.88084073  0.41633351  0.57600974     1.02500
O18         O  0.85626494  0.43033127  0.57134091    -0.77900
O19         O  0.79931999  0.44246300  0.53942591    -0.78100
C20         C  0.78524761  0.42531564  0.57597245     1.02500
Cr21       Cr  0.79503424  0.37673314  0.49092070     1.93700
Cr22       Cr  0.86186132  0.36395560  0.49760955     1.93200
Cr23       Cr  0.83732567  0.43255803  0.49596725     1.39100
O24         O  0.83169111  0.39117054  0.49439268    -1.23200
O25         O  0.77879598  0.07825416  0.04151628    -0.85400
O26         O  0.80101479  0.13624805  0.07604275    -0.82500
C27         C  0.81799807  0.15987371  0.08184192     0.98000
O28         O  0.83830954  0.16549247  0.04380247    -0.82500
O29         O  0.87854046  0.11796874  0.06619986    -0.85100
C30         C  0.88681372  0.08955775  0.07284716     1.02600
O31         O  0.87765804  0.06742778  0.04097161    -0.77900
O32         O  0.81961433  0.05603689  0.07011979    -0.78100
C33         C  0.79205973  0.06026474  0.07591727     1.02500
O34         O  0.78671022  0.09710953  0.92321314    -0.85400
O35         O  0.80205503  0.15729060  0.95821343    -0.82500
C36         C  0.82121469  0.16476404  0.91956074     0.98100
O37         O  0.84669209  0.15217482  0.91971965    -0.82500
O38         O  0.89092082  0.10772577  0.94700004    -0.85100
C39         C  0.88803623  0.08205475  0.91921652     1.02500
O40         O  0.86396778  0.06675819  0.92185161    -0.77900
O41         O  0.80565295  0.05111356  0.94758202    -0.78100
C42         C  0.78933899  0.06754000  0.91481760     1.02500
Cr43       Cr  0.79505751  0.11642368  0.99948281     1.93700
Cr44       Cr  0.86128794  0.13373127  0.99369303     1.93200
Cr45       Cr  0.84097737  0.06342413  0.99504664     1.39100
O46         O  0.83268065  0.10440414  0.99571954    -1.23200
C47         C  0.97498370  0.47661339  0.70337842     0.86400
C48         C  0.99400773  0.50168617  0.67101995    -0.53800
C49         C  0.00980087  0.02054443  0.70584286     0.09300
C50         C  0.00744911  0.01169237  0.77041378     0.20300
C51         C  0.99738412  0.45750773  0.73863158    -0.54500
C52         C  0.01436906  0.47560185  0.77375339     0.09400
C53         C  0.95733798  0.49540307  0.74948276    -0.54100
C54         C  0.97412036  0.01423971  0.78582907     0.10000
H55         H  0.99448114  0.50402815  0.62428182     0.14500
H56         H  0.02161894  0.02644756  0.79832169     0.00300
H57         H  0.99911814  0.43199893  0.74033362     0.14800
H58         H  0.93273266  0.99500831  0.75928339     0.14600
O59         O  0.19060797  0.40615250  0.08953980    -0.85400
O60         O  0.17803300  0.34470703  0.05654768    -0.82500
C61         C  0.15639291  0.33576918  0.08822290     0.98000
O62         O  0.13027275  0.34531413  0.07883771    -0.82500
O63         O  0.08989312  0.39402504  0.05737980    -0.85100
C64         C  0.09458655  0.41720867  0.09147164     1.02600
O65         O  0.11857881  0.43285867  0.08805143    -0.77900
O66         O  0.17568377  0.45136012  0.05477264    -0.78100
C67         C  0.19055326  0.43610948  0.09093356     1.02500
O68         O  0.20037140  0.42224582  0.96889869    -0.85400
O69         O  0.18291251  0.36360623  0.93905646    -0.82500
C70         C  0.16583445  0.34114772  0.92627958     0.98100
O71         O  0.14145182  0.33709150  0.95450092    -0.82500
O72         O  0.10313166  0.38820631  0.93406195    -0.85100
C73         C  0.09329173  0.41641466  0.93490091     1.02500
O74         O  0.10136760  0.43532321  0.97333094    -0.77900
O75         O  0.15983243  0.44331772  0.93608452    -0.78100
C76         C  0.18722267  0.43711013  0.92960628     1.02500
Cr77       Cr  0.18503504  0.38491062  0.01370261     1.93700
Cr78       Cr  0.11835239  0.36811237  0.00654475     1.93200
Cr79       Cr  0.13956429  0.43759581  0.01293665     1.39100
O80         O  0.14749017  0.39646588  0.01152659    -1.23200
O81         O  0.19889298  0.10222804  0.42271531    -0.85400
O82         O  0.18346922  0.16306915  0.46060153    -0.82500
C83         C  0.16445897  0.16808075  0.42292213     0.98000
O84         O  0.13868059  0.15660486  0.42951712    -0.82500
O85         O  0.09747844  0.10950473  0.45847494    -0.85100
C86         C  0.10214204  0.08459964  0.42840573     1.02600
O87         O  0.12583566  0.06879153  0.43310021    -0.77900
O88         O  0.18419778  0.05613952  0.45728638    -0.78100
C89         C  0.19835735  0.07224375  0.41924088     1.02500
O90         O  0.20924663  0.08547946  0.54084792    -0.85400
O91         O  0.18653469  0.14259737  0.57556277    -0.82500
C92         C  0.16840728  0.16481272  0.58659979     0.98100
O93         O  0.14638206  0.16947899  0.55412838    -0.82500
O94         O  0.10694007  0.12012704  0.57853899    -0.85100
C95         C  0.09915818  0.09141126  0.58426053     1.02500
O96         O  0.11042493  0.06997238  0.55251949    -0.77900
O97         O  0.16928854  0.06421489  0.57972219    -0.78100
C98         C  0.19683419  0.06956118  0.58085839     1.02500
Cr99       Cr  0.19169377  0.12243741  0.49980423     1.93700
Cr100      Cr  0.12472035  0.13709581  0.50479142     1.93200
Cr101      Cr  0.14800869  0.06786613  0.50561376     1.39100
O102        O  0.15445893  0.10918449  0.50326067    -1.23200
C103        C  0.21799242  0.25524276  0.74913061    -0.02600
C104        C  0.21732810  0.25028017  0.24300705    -0.02600
C105        C  0.96672075  0.02922157  0.22984696     0.86400
C106        C  0.95156454  0.00572659  0.27223212    -0.53800
C107        C  0.97047285  0.48462403  0.29862167     0.09300
C108        C  0.00332103  0.49192999  0.28510107     0.20300
C109        C  0.98846320  0.04796472  0.26656534    -0.54500
C110        C  0.00789936  0.02941494  0.29581457     0.09400
C111        C  0.98661535  0.00752618  0.19121280    -0.54100
C112        C  0.00575659  0.48832541  0.21904640     0.10000
H113        H  0.92791356  0.00151733  0.27650673     0.14500
H114        H  0.01869833  0.47653980  0.30929204     0.00300
H115        H  0.98902389  0.07378225  0.26802814     0.14800
H116        H  0.98567263  0.00755695  0.14443714     0.14600
O117        O  0.28545851  0.35204662  0.56026147    -0.85400
O118        O  0.30286587  0.41343321  0.52899726    -0.82500
C119        C  0.31956428  0.41706717  0.57136090     0.98000
O120        O  0.34562753  0.40611980  0.56777016    -0.82500
O121        O  0.38844165  0.36119033  0.54207020    -0.85100
C122        C  0.38272455  0.33599677  0.57005791     1.02600
O123        O  0.35930490  0.32041110  0.56201768    -0.77900
O124        O  0.30291995  0.30620597  0.52974042    -0.78100
C125        C  0.28648203  0.32203211  0.56447136     1.02500
O126        O  0.28097669  0.33649006  0.44147115    -0.85400
O127        O  0.30505419  0.39399855  0.41118314    -0.82500
C128        C  0.32357980  0.41628197  0.40431530     0.98100
O129        O  0.34315171  0.42126851  0.44198516    -0.82500
O130        O  0.38408420  0.37250660  0.42173162    -0.85100
C131        C  0.39305988  0.34402129  0.41842167     1.02500
O132        O  0.37983413  0.32208566  0.44609959    -0.77900
O133        O  0.32156586  0.31293174  0.41047683    -0.78100
C134        C  0.29387066  0.31731716  0.40716166     1.02500
Cr135      Cr  0.29639764  0.37322992  0.48577218     1.93700
Cr136      Cr  0.36284095  0.38844437  0.49312161     1.93200
Cr137      Cr  0.34043357  0.31871097  0.48678937     1.39100
O138        O  0.33351675  0.36004868  0.48816192    -1.23200
O139        O  0.28250742  0.16616978  0.94060327    -0.85400
O140        O  0.30351923  0.10759701  0.91261711    -0.82500
C141        C  0.32145422  0.08497798  0.90460614     0.98000
O142        O  0.34457189  0.08255219  0.93446081    -0.82500
O143        O  0.38363545  0.13429056  0.91430183    -0.85100
C144        C  0.39347722  0.16238653  0.91789790     1.02600
O145        O  0.38080918  0.18216721  0.95113717    -0.77900
O146        O  0.32318003  0.19152513  0.91350854    -0.78100
C147        C  0.29576811  0.18603206  0.90777408     1.02500
O148        O  0.28669969  0.15111379  0.06107373    -0.85400
O149        O  0.30347038  0.09002718  0.03321093    -0.82500
C150        C  0.32418042  0.08342645  0.06697228     0.98100
O151        O  0.35001946  0.09413192  0.05785880    -0.82500
O152        O  0.39015112  0.14128043  0.03633564    -0.85100
C153        C  0.38285954  0.16299663  0.07196414     1.02500
O154        O  0.35927434  0.17889925  0.06604593    -0.77900
O155        O  0.30339952  0.19682650  0.03049615    -0.78100
C156        C  0.28663487  0.18104639  0.06420966     1.02500
Cr157      Cr  0.29707338  0.12955981  0.98681655     1.93700
Cr158      Cr  0.36453358  0.11505912  0.98526165     1.93200
Cr159      Cr  0.34121585  0.18399776  0.98985753     1.39100
O160        O  0.33433857  0.14266566  0.98671916    -1.23200
C161        C  0.26089404  0.49675673  0.74959487    -0.02600
C162        C  0.27138701  0.00198385  0.24517471    -0.02600
C163        C  0.47181148  0.27712177  0.71141395     0.86400
C164        C  0.45561939  0.25324401  0.75113151    -0.53800
C165        C  0.47382634  0.23525783  0.78361813     0.09300
C166        C  0.50688374  0.24376769  0.77629279     0.20300
C167        C  0.49032640  0.29738314  0.75253422    -0.54500
C168        C  0.50874520  0.27993498  0.78589196     0.09400
C169        C  0.49505002  0.25727806  0.67726174    -0.54100
C170        C  0.51326363  0.23987185  0.71135361     0.10000
H171        H  0.43161591  0.25010855  0.75230075     0.14500
H172        H  0.52171284  0.22946516  0.80376329     0.00300
H173        H  0.48982749  0.32303365  0.75571893     0.14800
H174        H  0.49687250  0.25690163  0.63037006     0.14600
C175        C  0.71514954  0.49581300  0.75346544    -0.02600
O176        O  0.69986072  0.14539583  0.57821320    -0.85400
O177        O  0.68120639  0.08655122  0.54257639    -0.82500
C178        C  0.66100896  0.08087589  0.58043178     0.98000
O179        O  0.63624825  0.09485481  0.57786353    -0.82500
O180        O  0.59703761  0.14416191  0.55858177    -0.85100
C181        C  0.60344213  0.16688894  0.59214295     1.02600
O182        O  0.62860347  0.17996915  0.58801763    -0.77900
O183        O  0.68614012  0.19320771  0.55291225    -0.78100
C184        C  0.70040685  0.17500552  0.58579760     1.02500
O185        O  0.70745440  0.16566198  0.45790938    -0.85400
O186        O  0.68324851  0.10920439  0.42485270    -0.82500
C187        C  0.66431848  0.08775785  0.41642203     0.98100
O188        O  0.64249645  0.08400905  0.45209826    -0.82500
O189        O  0.60575989  0.13724374  0.43603186    -0.85100
C190        C  0.59758439  0.16610963  0.43740117     1.02500
O191        O  0.60920171  0.18514293  0.47251963    -0.77900
O192        O  0.66721021  0.19149404  0.43440127    -0.78100
C193        C  0.69431330  0.18525724  0.42559440     1.02500
Cr194      Cr  0.69023517  0.12777691  0.50130198     1.93700
Cr195      Cr  0.62277557  0.11670436  0.50614923     1.93200
Cr196      Cr  0.64827729  0.18431347  0.51148700     1.39100
O197        O  0.65362662  0.14284791  0.50598300    -1.23200
C198        C  0.71338564  0.49638635  0.25063221    -0.02600
O199        O  0.70375731  0.33249817  0.96004519    -0.85400
O200        O  0.68079146  0.39003833  0.93259129    -0.82500
C201        C  0.66147606  0.41126555  0.92553950     0.98000
O202        O  0.63933313  0.41384221  0.96051752    -0.82500
O203        O  0.60329605  0.36170088  0.93796650    -0.85100
C204        C  0.59470071  0.33310025  0.93710597     1.02600
O205        O  0.60579146  0.31285030  0.97018690    -0.77900
O206        O  0.66406377  0.30826156  0.93039062    -0.78100
C207        C  0.69110621  0.31560881  0.92277421     1.02500
O208        O  0.69569580  0.34687384  0.08174289    -0.85400
O209        O  0.67804092  0.40765777  0.05321264    -0.82500
C210        C  0.65715327  0.41271839  0.08967658     0.98100
O211        O  0.63201642  0.40007210  0.08372823    -0.82500
O212        O  0.59345016  0.35118622  0.05952693    -0.85100
C213        C  0.59959806  0.32743884  0.09094912     1.02500
O214        O  0.62437726  0.31348138  0.08525109    -0.77900
O215        O  0.68201386  0.30079846  0.04799595    -0.78100
C216        C  0.69604247  0.31689006  0.08431819     1.02500
Cr217      Cr  0.68682814  0.36829678  0.00719013     1.93700
Cr218      Cr  0.61937637  0.37996472  0.01033568     1.93200
Cr219      Cr  0.64459668  0.31201774  0.00838807     1.39100
O220        O  0.65012345  0.35360523  0.00879259    -1.23200
C221        C  0.46588890  0.22107676  0.22513436     0.86400
C222        C  0.48819446  0.23925854  0.18564491    -0.53800
C223        C  0.50782088  0.25781639  0.21466774     0.09300
C224        C  0.50326294  0.25673726  0.28072876     0.20300
C225        C  0.48522991  0.20254106  0.26689027    -0.54500
C226        C  0.50512430  0.22079444  0.29583942     0.09400
C227        C  0.45120329  0.24765874  0.26143732    -0.54100
C228        C  0.47043942  0.26659129  0.28971391     0.10000
H229        H  0.48845347  0.23750691  0.13887215     0.14500
H230        H  0.51899230  0.27221773  0.30373819     0.00300
H231        H  0.48381919  0.17689102  0.27177785     0.14800
H232        H  0.42771423  0.25330978  0.26188603     0.14600
C233        C  0.57596643  0.31325200  0.12811963    -0.05500
C234        C  0.54664305  0.31411747  0.10901799    -0.33000
C235        C  0.52432539  0.29599899  0.13626797     0.36300
C236        C  0.53085650  0.27769343  0.18529759    -0.05900
C237        C  0.55978697  0.27834600  0.20661594    -0.32900
C238        C  0.58237030  0.29567581  0.17802911     0.36200
H239        H  0.54120687  0.32768312  0.07094201     0.16600
O240        O  0.49610029  0.29684179  0.11526285    -0.60400
H241        H  0.56515354  0.26449945  0.24440474     0.16600
O242        O  0.61066622  0.29477901  0.19855061    -0.60500
H243        H  0.61226062  0.31390637  0.22335817     0.43600
H244        H  0.49725386  0.28491017  0.07825959     0.43500
C245        C  0.69126770  0.47403154  0.21911352    -0.05500
C246        C  0.69057491  0.44081672  0.22792274    -0.33000
C247        C  0.67754888  0.42056317  0.18772561     0.36300
C248        C  0.66320319  0.43321002  0.13976330    -0.05900
C249        C  0.65904072  0.46608800  0.13633397    -0.32900
C250        C  0.67230392  0.48651682  0.17622006     0.36200
H251        H  0.70159036  0.43003350  0.26384711     0.16600
O252        O  0.68095648  0.38833961  0.19333084    -0.60400
H253        H  0.64724304  0.47612029  0.10044408     0.16600
O254        O  0.66886158  0.51878038  0.16978323    -0.60500
H255        H  0.67919502  0.52439673  0.13275859     0.43600
H256        H  0.66224617  0.38082041  0.21246570     0.43500
C257        C  0.57340132  0.17861139  0.40074307    -0.05500
C258        C  0.55856622  0.20667481  0.41830432    -0.33000
C259        C  0.53654575  0.22053960  0.38484472     0.36300
C260        C  0.52842623  0.20634544  0.33263476    -0.05900
C261        C  0.54291826  0.17798672  0.31517998    -0.32900
C262        C  0.56509872  0.16408798  0.34876356     0.36200
H263        H  0.56394977  0.21808893  0.45866042     0.16600
O264        O  0.52214409  0.24718316  0.40513779    -0.60400
H265        H  0.53743390  0.16678880  0.27470076     0.16600
O266        O  0.57930296  0.13715987  0.32908272    -0.60500
H267        H  0.56595575  0.11933865  0.34054166     0.43600
H268        H  0.53690866  0.26464191  0.40153289     0.43500
C269        C  0.66960803  0.06597295  0.36625942    -0.05500
C270        C  0.66218233  0.03363419  0.36985966    -0.33000
C271        C  0.67390762  0.01170524  0.32907512     0.36300
C272        C  0.69400360  0.02195365  0.28404745    -0.05900
C273        C  0.69641155  0.05502849  0.27517535    -0.32900
C274        C  0.68529558  0.07667822  0.31637894     0.36200
H275        H  0.64919419  0.02489118  0.40665042     0.16600
O276        O  0.66690867  0.47916732  0.33667609    -0.60400
H277        H  0.70820962  0.06463263  0.23786792     0.16600
O278        O  0.69100794  0.10839081  0.30845910    -0.60500
H279        H  0.67545152  0.11582739  0.28211223     0.43600
H280        H  0.67677135  0.47290162  0.37273364     0.43500
C281        C  0.69220364  0.01684514  0.71193266    -0.05500
C282        C  0.68851628  0.00657142  0.65402730    -0.33000
C283        C  0.67777710  0.02691347  0.61151389     0.36300
C284        C  0.66688137  0.05709187  0.62652459    -0.05900
C285        C  0.66423716  0.06489322  0.68558394    -0.32900
C286        C  0.67597727  0.04464144  0.72826039     0.36200
H287        H  0.69596232  0.98331570  0.63982902     0.16600
O288        O  0.67840316  0.01714849  0.55491494    -0.60400
H289        H  0.65443348  0.08742623  0.69852881     0.16600
O290        O  0.67285225  0.05337889  0.78507163    -0.60500
H291        H  0.65291211  0.04552071  0.79762854     0.43600
H292        H  0.69920957  0.02050617  0.54086352     0.43500
C293        C  0.69395354  0.47684920  0.79648039    -0.05500
C294        C  0.67979333  0.44852607  0.77918092    -0.33000
C295        C  0.66824242  0.42681348  0.82044659     0.36300
C296        C  0.66694436  0.43506343  0.87941943    -0.05900
C297        C  0.67469745  0.46581531  0.89525624    -0.32900
C298        C  0.68800182  0.48671011  0.85503401     0.36200
H299        H  0.68025532  0.44170539  0.73406112     0.16600
O300        O  0.65976070  0.39706744  0.80299117    -0.60400
H301        H  0.67225656  0.47309857  0.94008594     0.16600
O302        O  0.69446296  0.51688753  0.87365466    -0.60500
H303        H  0.70823764  0.51440457  0.90611535     0.43600
H304        H  0.63770759  0.39734778  0.80463624     0.43500
C305        C  0.53638485  0.21860438  0.68730660    -0.05500
C306        C  0.52816147  0.19369135  0.65107271    -0.33000
C307        C  0.54976147  0.17496202  0.62295967     0.36300
C308        C  0.58026808  0.18122494  0.63078632    -0.05900
C309        C  0.58827112  0.20530540  0.66972792    -0.32900
C310        C  0.56653777  0.22385041  0.69806433     0.36200
H311        H  0.50485996  0.18934152  0.64327035     0.16600
O312        O  0.54070319  0.15164707  0.58592135    -0.60400
H313        H  0.61146909  0.21079924  0.67628134     0.16600
O314        O  0.57505013  0.24865917  0.73236329    -0.60500
H315        H  0.57730401  0.23932913  0.77133693     0.43600
H316        H  0.53735534  0.16265677  0.54875258     0.43500
C317        C  0.53002699  0.29495214  0.82456766    -0.05500
C318        C  0.52969912  0.28629403  0.88276096    -0.33000
C319        C  0.54999970  0.29966405  0.92017659     0.36300
C320        C  0.57096527  0.32225746  0.89944794    -0.05900
C321        C  0.57095777  0.33137349  0.84128829    -0.32900
C322        C  0.55072310  0.31768319  0.80368410     0.36200
H323        H  0.51372700  0.26904394  0.89924363     0.16600
O324        O  0.54894527  0.29081986  0.97725784    -0.60400
H325        H  0.58746696  0.34798161  0.82448658     0.16600
O326        O  0.55261716  0.32496860  0.74592898    -0.60500
H327        H  0.54301250  0.34608710  0.74243584     0.43600
H328        H  0.55849839  0.26957067  0.97840793     0.43500
C329        C  0.46149117  0.20955775  0.82012313    -0.05500
C330        C  0.45852645  0.21487500  0.87937518    -0.33000
C331        C  0.43840286  0.19699774  0.91274706     0.36300
C332        C  0.42054267  0.17360979  0.88655455    -0.05900
C333        C  0.42618200  0.16566020  0.82850533    -0.32900
C334        C  0.44651939  0.18372029  0.79506207     0.36200
H335        H  0.46982965  0.23471301  0.89897055     0.16600
O336        O  0.43448537  0.20446547  0.97017880    -0.60400
H337        H  0.41310849  0.14745946  0.80795907     0.16600
O338        O  0.45040774  0.17725420  0.73723651    -0.60500
H339        H  0.43357268  0.18784317  0.71824805     0.43600
H340        H  0.45041949  0.19280834  0.98998342     0.43500
C341        C  0.40347292  0.17175711  0.11760762    -0.05500
C342        C  0.43416527  0.16700485  0.10873517    -0.33000
C343        C  0.45453005  0.18067168  0.14598774     0.36300
C344        C  0.44431025  0.20008659  0.19228131    -0.05900
C345        C  0.41348349  0.20027541  0.20575817    -0.32900
C346        C  0.39317802  0.18699561  0.16824272     0.36200
H347        H  0.44252586  0.15404926  0.07121093     0.16600
O348        O  0.48436923  0.17639704  0.13474435    -0.60400
H349        H  0.40452684  0.21092810  0.24490728     0.16600
O350        O  0.36330166  0.18880837  0.18171876    -0.60500
H351        H  0.35734862  0.21077223  0.17146226     0.43600
H352        H  0.48939342  0.15609567  0.15396531     0.43500
C353        C  0.31130575  0.05876929  0.86770036    -0.05500
C354        C  0.28575777  0.04336396  0.88765063    -0.33000
C355        C  0.26931284  0.02383993  0.85204253     0.36300
C356        C  0.27953496  0.01668350  0.79408620    -0.05900
C357        C  0.30549034  0.03299003  0.77415939    -0.32900
C358        C  0.32134800  0.05365332  0.81042099     0.36200
H359        H  0.27682608  0.04870964  0.93063668     0.16600
O360        O  0.24136821  0.01580748  0.87265713    -0.60400
H361        H  0.31298474  0.03065675  0.72951918     0.16600
O362        O  0.34579611  0.06961276  0.78881528    -0.60500
H363        H  0.33774215  0.08817620  0.76792907     0.43600
H364        H  0.24405828  0.00467999  0.90999086     0.43500
C365        C  0.31748708  0.06311221  0.11773681    -0.05500
C366        C  0.31908875  0.03007875  0.11271085    -0.33000
C367        C  0.30702667  0.01036340  0.15637633     0.36300
C368        C  0.29169516  0.02370100  0.20551185    -0.05900
C369        C  0.29465953  0.05685705  0.21380171    -0.32900
C370        C  0.30668639  0.07646387  0.16987601     0.36200
H371        H  0.32843004  0.01946969  0.07356815     0.16600
O372        O  0.31120385  0.47909582  0.14824085    -0.60400
H373        H  0.28693509  0.06811978  0.25337055     0.16600
O374        O  0.30728719  0.10878986  0.17780607    -0.60500
H375        H  0.28659794  0.11601864  0.17214521     0.43600
H376        H  0.29900571  0.47396461  0.11444169     0.43500
C377        C  0.41996042  0.33480851  0.38457764    -0.05500
C378        C  0.41998661  0.33584234  0.32415995    -0.33000
C379        C  0.43959824  0.31648967  0.29165817     0.36300
C380        C  0.45915941  0.29554936  0.31986057    -0.05900
C381        C  0.46183138  0.29793924  0.37967091    -0.32900
C382        C  0.44229091  0.31729820  0.41213986     0.36200
H383        H  0.40296122  0.34913477  0.30238106     0.16600
O384        O  0.43717331  0.31556987  0.23271523    -0.60400
H385        H  0.47671402  0.28230722  0.40201387     0.16600
O386        O  0.44359384  0.31710272  0.47132610    -0.60500
H387        H  0.43452270  0.29664214  0.48381720     0.43600
H388        H  0.45517906  0.32653722  0.21706621     0.43500
C389        C  0.40514752  0.32243720  0.60752391    -0.05500
C390        C  0.40897819  0.28943071  0.60701659    -0.33000
C391        C  0.43147256  0.27526223  0.63789784     0.36300
C392        C  0.44998312  0.29393778  0.67275647    -0.05900
C393        C  0.44632952  0.32730378  0.67228038    -0.32900
C394        C  0.42437932  0.34152710  0.63931149     0.36200
H395        H  0.39495380  0.27446191  0.58110521     0.16600
O396        O  0.43455804  0.24280029  0.63530723    -0.60400
H397        H  0.46008632  0.34290614  0.69692047     0.16600
O398        O  0.42123406  0.37398680  0.64009905    -0.60500
H399        H  0.43596566  0.38199434  0.61090890     0.43600
H400        H  0.44569874  0.23854340  0.59852159     0.43500
C401        C  0.30707069  0.43376314  0.62370355    -0.05500
C402        C  0.27609671  0.43498312  0.62952074    -0.33000
C403        C  0.26186115  0.45279518  0.67252621     0.36300
C404        C  0.27831967  0.47124971  0.71214486    -0.05900
C405        C  0.30956221  0.46666033  0.71119347    -0.32900
C406        C  0.32394486  0.44844403  0.66690431     0.36200
H407        H  0.26230468  0.42270837  0.59899822     0.16600
O408        O  0.23145826  0.45462078  0.67131262    -0.60400
H409        H  0.32314685  0.47770079  0.74324084     0.16600
O410        O  0.35433281  0.44580119  0.66572276    -0.60500
H411        H  0.36168916  0.46526220  0.64579934     0.43600
H412        H  0.22413767  0.43415720  0.68760331     0.43500
C413        C  0.32031338  0.43738176  0.35334526    -0.05500
C414        C  0.32678722  0.46997362  0.35622544    -0.33000
C415        C  0.31470754  0.49122235  0.31597921     0.36300
C416        C  0.29518729  0.47976293  0.27328281    -0.05900
C417        C  0.29542776  0.44672521  0.26287214    -0.32900
C418        C  0.30695106  0.42566068  0.30322660     0.36200
H419        H  0.33859134  0.47939955  0.39260746     0.16600
O420        O  0.31935167  0.52328317  0.32254732    -0.60400
H421        H  0.28477900  0.43671232  0.22579091     0.16600
O422        O  0.30304426  0.39360390  0.29521184    -0.60500
H423        H  0.32295412  0.38531163  0.28345672     0.43600
H424        H  0.30855785  0.52939826  0.35882334     0.43500
C425        C  0.23967292  0.26673395  0.28439869    -0.05500
C426        C  0.22698537  0.28297033  0.33254428    -0.33000
C427        C  0.24421347  0.29875758  0.37253692     0.36300
C428        C  0.27549239  0.29925622  0.36591022    -0.05900
C429        C  0.28873974  0.28130270  0.32118651    -0.32900
C430        C  0.27144060  0.26444245  0.28156247     0.36200
H431        H  0.20302800  0.28400253  0.33856064     0.16600
O432        O  0.22989875  0.31346649  0.41836515    -0.60400
H433        H  0.31276185  0.27961208  0.31760930     0.16600
O434        O  0.28586833  0.24323217  0.24541724    -0.60500
H435        H  0.30173213  0.25532926  0.22442756     0.43600
H436        H  0.22995104  0.29766830  0.45020709     0.43500
C437        C  0.26665283  0.19837043  0.10560820    -0.05500
C438        C  0.26828938  0.23173332  0.10911091    -0.33000
C439        C  0.25136118  0.24876110  0.15052011     0.36300
C440        C  0.23287133  0.23238487  0.19129705    -0.05900
C441        C  0.22809899  0.19954668  0.18106894    -0.32900
C442        C  0.24523359  0.18256471  0.14032316     0.36200
H443        H  0.28324864  0.24486078  0.08041596     0.16600
O444        O  0.25353537  0.28135335  0.15180210    -0.60400
H445        H  0.21133925  0.18626734  0.20508803     0.16600
O446        O  0.24088205  0.15040743  0.13543261    -0.60500
H447        H  0.22534803  0.14799360  0.10618572     0.43600
H448        H  0.27473794  0.28639173  0.15800580     0.43500
C449        C  0.23993318  0.23768492  0.78995594    -0.05500
C450        C  0.27137345  0.24022775  0.78516883    -0.33000
C451        C  0.29001022  0.22329778  0.82201634     0.36300
C452        C  0.27764023  0.20396975  0.86611854    -0.05900
C453        C  0.24659672  0.20229496  0.87252006    -0.32900
C454        C  0.22800758  0.21906170  0.83632965     0.36200
H455        H  0.28205227  0.25586011  0.75403384     0.16600
O456        O  0.32025156  0.22615055  0.81466896    -0.60400
H457        H  0.23626831  0.18797016  0.90642498     0.16600
O458        O  0.19783842  0.21544805  0.84439788    -0.60500
H459        H  0.19271435  0.22665881  0.88107472     0.43600
H460        H  0.32611976  0.20908043  0.78704571     0.43500
C461        C  0.23410554  0.27366085  0.69845256    -0.05500
C462        C  0.25397423  0.25670807  0.66155312    -0.33000
C463        C  0.27089210  0.27184789  0.61800294     0.36300
C464        C  0.26780484  0.30486152  0.60854420    -0.05900
C465        C  0.24574503  0.32125713  0.64033243    -0.32900
C466        C  0.22837152  0.30602351  0.68343130     0.36200
H467        H  0.25731316  0.23145790  0.66808826     0.16600
O468        O  0.29095312  0.25405242  0.58607584    -0.60400
H469        H  0.24138319  0.34605740  0.63100861     0.16600
O470        O  0.20444117  0.32236770  0.70672916    -0.60500
H471        H  0.21253577  0.34203769  0.72402305     0.43600
H472        H  0.27931052  0.24453724  0.55467571     0.43500
C473        C  0.21514694  0.05574311  0.62624995    -0.05500
C474        C  0.20575066  0.05672013  0.68451565    -0.33000
C475        C  0.22234347  0.04142884  0.72699817     0.36300
C476        C  0.24635078  0.02125199  0.71024062    -0.05900
C477        C  0.25840446  0.02581206  0.65356564    -0.32900
C478        C  0.24284286  0.04217707  0.61178375     0.36200
H479        H  0.18562798  0.06942626  0.69712371     0.16600
O480        O  0.21334792  0.04437551  0.78374955    -0.60400
H481        H  0.27951010  0.01549021  0.64004802     0.16600
O482        O  0.25444708  0.04369084  0.55635131    -0.60500
H483        H  0.24990631  0.02279974  0.53875488     0.43600
H484        H  0.22165445  0.06497782  0.79649815     0.43500
C485        C  0.21612953  0.05504719  0.37429882    -0.05500
C486        C  0.22975305  0.02657890  0.38968105    -0.33000
C487        C  0.24713635  0.00904319  0.35003180     0.36300
C488        C  0.25192451  0.02014922  0.29202438    -0.05900
C489        C  0.23506605  0.04706306  0.27572400    -0.32900
C490        C  0.21841955  0.06506655  0.31645739     0.36200
H491        H  0.22688742  0.01756751  0.43337414     0.16600
O492        O  0.25836887  0.48103563  0.36665044    -0.60400
H493        H  0.23538433  0.05475179  0.23107442     0.16600
O494        O  0.20398777  0.09197465  0.29890500    -0.60500
H495        H  0.18366704  0.08485268  0.28951097     0.43600
H496        H  0.26960595  0.48506418  0.40222136     0.43500
C497        C  0.03206298  0.04354084  0.32973375    -0.05500
C498        C  0.06181482  0.03998377  0.31095508    -0.33000
C499        C  0.08491311  0.05402067  0.34148645     0.36300
C500        C  0.07836721  0.07224504  0.39143246    -0.05900
C501        C  0.04845953  0.07654692  0.40906438    -0.32900
C502        C  0.02546567  0.06224509  0.37881644     0.36200
H503        H  0.06714500  0.02693601  0.27178013     0.16600
O504        O  0.11374453  0.04991279  0.32195069    -0.60400
H505        H  0.04290026  0.09018612  0.44760991     0.16600
O506        O  0.99658310  0.06644942  0.39787484    -0.60500
H507        H  0.99208066  0.04779199  0.42284121     0.43600
H508        H  0.11811919  0.06861525  0.29702363     0.43500
C509        C  0.20061396  0.22637526  0.28432550    -0.05500
C510        C  0.17025108  0.22974010  0.30180349    -0.33000
C511        C  0.15723314  0.21013221  0.34510603     0.36300
C512        C  0.17437185  0.18656886  0.37152856    -0.05900
C513        C  0.20390715  0.18231527  0.35284221    -0.32900
C514        C  0.21722130  0.20215843  0.31177333     0.36200
H515        H  0.15677747  0.24864705  0.28484797     0.16600
O516        O  0.12836007  0.21533780  0.36324497    -0.60400
H517        H  0.21748380  0.16409149  0.37222607     0.16600
O518        O  0.24686896  0.19757860  0.29857285    -0.60500
H519        H  0.25757928  0.20397829  0.33362031     0.43600
H520        H  0.12940069  0.23254306  0.39244940     0.43500
C521        C  0.17488281  0.18613005  0.63616889    -0.05500
C522        C  0.16450641  0.21764328  0.63872998    -0.33000
C523        C  0.17570228  0.23948768  0.67917192     0.36300
C524        C  0.19815193  0.23020746  0.71784637    -0.05900
C525        C  0.20627636  0.19758053  0.71720691    -0.32900
C526        C  0.19468999  0.17595114  0.67833314     0.36200
H527        H  0.14900890  0.22598396  0.60710877     0.16600
O528        O  0.16661742  0.27057139  0.67665302    -0.60400
H529        H  0.22365837  0.18820134  0.74339716     0.16600
O530        O  0.20392304  0.14482012  0.68085535    -0.60500
H531        H  0.22438148  0.14459792  0.66361244     0.43600
H532        H  0.14540109  0.27048414  0.68959113     0.43500
C533        C  0.20959566  0.45376526  0.13091558    -0.05500
C534        C  0.21334240  0.44310624  0.18743870    -0.33000
C535        C  0.23183051  0.45956595  0.22518800     0.36300
C536        C  0.24957585  0.48565370  0.20511795    -0.05900
C537        C  0.24295519  0.49775257  0.14976797    -0.32900
C538        C  0.22393280  0.48190195  0.11285236     0.36200
H539        H  0.20138401  0.42227077  0.20292626     0.16600
O540        O  0.23300600  0.44906315  0.28105641    -0.60400
H541        H  0.25250902  0.51976340  0.13390184     0.16600
O542        O  0.21997709  0.49399168  0.05851557    -0.60500
H543        H  0.23594739  0.48427213  0.03389711     0.43600
H544        H  0.21396434  0.45591302  0.29983195     0.43500
C545        C  0.20457228  0.44784579  0.87771239    -0.05500
C546        C  0.19048098  0.46322488  0.83215472    -0.33000
C547        C  0.20709615  0.47671505  0.78583514     0.36300
C548        C  0.23877759  0.47578553  0.78609400    -0.05900
C549        C  0.25191533  0.45538343  0.82659650    -0.32900
C550        C  0.23545466  0.44224939  0.87245892     0.36200
H551        H  0.16645299  0.46519536  0.83266522     0.16600
O552        O  0.19213754  0.48850630  0.73953677    -0.60400
H553        H  0.27586729  0.45248580  0.82636038     0.16600
O554        O  0.25044352  0.42624813  0.91429650    -0.60500
H555        H  0.25148906  0.40388198  0.90076299     0.43600
H556        H  0.17640170  0.50285917  0.75543553     0.43500
C557        C  0.02698191  0.46589622  0.18994219    -0.05500
C558        C  0.05551625  0.46216642  0.21207286    -0.33000
C559        C  0.07728518  0.44442629  0.18242504     0.36300
C560        C  0.07056107  0.42915104  0.13038202    -0.05900
C561        C  0.04122299  0.43000980  0.11117535    -0.32900
C562        C  0.01949298  0.44842117  0.14032817     0.36200
H563        H  0.06155148  0.47391698  0.25145104     0.16600
O564        O  0.10547948  0.44331481  0.20343983    -0.60400
H565        H  0.03552852  0.41800421  0.07155635     0.16600
O566        O  0.99095845  0.44862394  0.12079839    -0.60500
H567        H  0.99197720  0.46024399  0.08349989     0.43600
H568        H  0.10600772  0.42369753  0.22717465     0.43500
C569        C  0.20177691  0.27864872  0.79161293    -0.05500
C570        C  0.17131624  0.27639044  0.80845696    -0.33000
C571        C  0.15874038  0.29642301  0.85184307     0.36300
C572        C  0.17653263  0.31924020  0.87929974    -0.05900
C573        C  0.20663024  0.32137185  0.86235597    -0.32900
C574        C  0.21918753  0.30171219  0.82013327     0.36200
H575        H  0.15740246  0.25825837  0.79014739     0.16600
O576        O  0.12934946  0.29291319  0.86782456    -0.60400
H577        H  0.22125134  0.33817626  0.88283948     0.16600
O578        O  0.24917972  0.30453318  0.80818471    -0.60500
H579        H  0.25210725  0.32591347  0.79081907     0.43600
H580        H  0.11833342  0.30628437  0.84035449     0.43500
C581        C  0.16378204  0.31552486  0.13818975    -0.05500
C582        C  0.18426370  0.32799427  0.17630870    -0.33000
C583        C  0.20060009  0.30854359  0.21282785     0.36300
C584        C  0.19604792  0.27484242  0.21366462    -0.05900
C585        C  0.17351583  0.26292785  0.17767103    -0.32900
C586        C  0.15775518  0.28279450  0.14009585     0.36200
H587        H  0.18979784  0.35308590  0.17395329     0.16600
O588        O  0.22367329  0.32280930  0.24029772    -0.60400
H589        H  0.16949620  0.23754925  0.17589559     0.16600
O590        O  0.13809258  0.26965119  0.10269927    -0.60500
H591        H  0.15051221  0.26155672  0.06978664     0.43600
H592        H  0.21430928  0.33740313  0.26922080     0.43500
C593        C  0.03124509  0.04441122  0.68195497    -0.05500
C594        C  0.06055896  0.04431985  0.70126946    -0.33000
C595        C  0.08262918  0.06262444  0.67329761     0.36300
C596        C  0.07552740  0.08162775  0.62567881    -0.05900
C597        C  0.04581532  0.08386617  0.60931720    -0.32900
C598        C  0.02365372  0.06544406  0.63715579     0.36200
H599        H  0.06686469  0.02842255  0.73566505     0.16600
O600        O  0.11155648  0.05985751  0.68982075    -0.60400
H601        H  0.04012284  0.09821194  0.57231946     0.16600
O602        O  0.99474585  0.06797379  0.62018042    -0.60500
H603        H  0.99440114  0.05841915  0.58101328     0.43600
H604        H  0.11399521  0.07644440  0.71978475     0.43500
C605        C  0.03497230  0.46054182  0.81463382    -0.05500
C606        C  0.05374628  0.43545530  0.79600287    -0.33000
C607        C  0.07203825  0.41957912  0.83487649     0.36300
C608        C  0.07174702  0.42878368  0.89326025    -0.05900
C609        C  0.05243150  0.45335819  0.91183117    -0.32900
C610        C  0.03428534  0.46920235  0.87321100     0.36200
H611        H  0.05444097  0.42837298  0.75097509     0.16600
O612        O  0.09119187  0.39646323  0.81476815    -0.60400
H613        H  0.05151259  0.46058051  0.95681280     0.16600
O614        O  0.01364076  0.99050437  0.89288528    -0.60500
H615        H  0.02562811  0.00974575  0.90069588     0.43600
H616        H  0.07967285  0.37637893  0.81727768     0.43500
C617        C  0.94582156  0.05036187  0.19515487    -0.05500
C618        C  0.91469067  0.05020512  0.20552651    -0.33000
C619        C  0.89546348  0.06435509  0.16698698     0.36300
C620        C  0.90690124  0.08091662  0.11895980    -0.05900
C621        C  0.93772684  0.08441389  0.11128705    -0.32900
C622        C  0.95718339  0.06958418  0.14934465     0.36200
H623        H  0.90436180  0.03873375  0.24241629     0.16600
O624        O  0.86530286  0.06106361  0.17570682    -0.60400
H625        H  0.94673178  0.09721016  0.07411708     0.16600
O626        O  0.98726356  0.07241413  0.13927224    -0.60500
H627        H  0.99297143  0.09227574  0.15923009     0.43600
H628        H  0.86034338  0.04016784  0.15855278     0.43500
C629        C  0.91410217  0.06712549  0.89051695    -0.05500
C630        C  0.93124050  0.08312900  0.84810706    -0.33000
C631        C  0.95404336  0.06699871  0.81740545     0.36300
C632        C  0.95997258  0.03485858  0.82996296    -0.05900
C633        C  0.94463271  0.02001178  0.87591625    -0.32900
C634        C  0.92189608  0.03589734  0.90616616     0.36200
H635        H  0.92578379  0.10735360  0.83647712     0.16600
O636        O  0.96815675  0.08168810  0.77139648    -0.60400
H637        H  0.94874359  0.99516760  0.88538525     0.16600
O638        O  0.90646370  0.02018201  0.94942873    -0.60500
H639        H  0.91774693  0.02425256  0.98489921     0.43600
H640        H  0.98787359  0.08804356  0.78565069     0.43500
C641        C  0.73547224  0.01747581  0.78978922    -0.05500
C642        C  0.73828630  0.05099188  0.78746994    -0.33000
C643        C  0.75566406  0.06775634  0.82721922     0.36300
C644        C  0.77211759  0.05120814  0.86887118    -0.05900
C645        C  0.77161325  0.01790011  0.86762454    -0.32900
C646        C  0.75404401  0.00121500  0.82896911     0.36200
H647        H  0.72711418  0.06469917  0.75524399     0.16600
O648        O  0.75659932  0.10032934  0.82430581    -0.60400
H649        H  0.78426415  0.00433207  0.89823273     0.16600
O650        O  0.75611693  0.46695873  0.83224886    -0.60500
H651        H  0.77539074  0.46037681  0.81407664     0.43600
H652        H  0.73818196  0.10767954  0.84478918     0.43500
C653        C  0.73612000  0.01325226  0.20436066    -0.05500
C654        C  0.73718738  0.00349516  0.14552554    -0.33000
C655        C  0.75547872  0.01847981  0.10411298     0.36300
C656        C  0.77469124  0.04279176  0.12038401    -0.05900
C657        C  0.77649436  0.05073981  0.17885786    -0.32900
C658        C  0.75795389  0.03589482  0.22074958     0.36200
H659        H  0.72432638  0.48226189  0.13137583     0.16600
O660        O  0.75435124  0.00913395  0.04739863    -0.60400
H661        H  0.79192258  0.06897363  0.19204025     0.16600
O662        O  0.76067586  0.04459723  0.27746925    -0.60500
H663        H  0.77920610  0.03424571  0.29015737     0.43600
H664        H  0.76995438  0.99258534  0.04259573     0.43500
C665        C  0.95896754  0.45688866  0.33099347    -0.05500
C666        C  0.95927484  0.45758317  0.39121888    -0.33000
C667        C  0.93857553  0.43963070  0.42349217     0.36300
C668        C  0.91776394  0.42037815  0.39515956    -0.05900
C669        C  0.92014471  0.41652511  0.33526919    -0.32900
C670        C  0.94067071  0.43471738  0.30301850     0.36200
H671        H  0.97328549  0.47447883  0.41304589     0.16600
O672        O  0.93753338  0.44246016  0.48259699    -0.60400
H673        H  0.90426608  0.40186677  0.31309481     0.16600
O674        O  0.94023893  0.43354445  0.24383282    -0.60500
H675        H  0.95572992  0.41779099  0.23242894     0.43600
H676        H  0.93005817  0.46425814  0.49058008     0.43500
C677        C  0.90443589  0.43097471  0.60963245    -0.05500
C678        C  0.92774827  0.41211492  0.62919170    -0.33000
C679        C  0.95209205  0.42569038  0.65631853     0.36300
C680        C  0.95327252  0.45911077  0.66478802    -0.05900
C681        C  0.93086297  0.47788403  0.64043964    -0.32900
C682        C  0.90651393  0.46423358  0.61415828     0.36200
H683        H  0.92732048  0.38657503  0.62285036     0.16600
O684        O  0.97499509  0.40598851  0.67046166    -0.60400
H685        H  0.93159665  0.50357694  0.64413004     0.16600
O686        O  0.88511791  0.48376218  0.59223785    -0.60500
H687        H  0.89304348  0.49056126  0.55378813     0.43600
H688        H  0.96702778  0.39235197  0.70228582     0.43500
C689        C  0.76987970  0.44129173  0.62620266    -0.05500
C690        C  0.77148147  0.47452192  0.63009932    -0.33000
C691        C  0.75599974  0.49133171  0.67340141     0.36300
C692        C  0.73728762  0.47528683  0.71462967    -0.05900
C693        C  0.73922993  0.44159731  0.71523690    -0.32900
C694        C  0.75464648  0.42474397  0.67102079     0.36200
H695        H  0.78427217  0.48806785  0.59829386     0.16600
O696        O  0.75429446  0.02587146  0.66927593    -0.60400
H697        H  0.72917752  0.42773249  0.74966770     0.16600
O698        O  0.75423397  0.39213250  0.67191789    -0.60500
H699        H  0.77267839  0.38582113  0.69143640     0.43600
H700        H  0.74492484  0.03251216  0.63290209     0.43500
C701        C  0.77410363  0.44981958  0.37166635    -0.05500
C702        C  0.77364014  0.44002075  0.31396380    -0.33000
C703        C  0.75429508  0.45446873  0.27493155     0.36300
C704        C  0.73421248  0.47887022  0.29380008    -0.05900
C705        C  0.73683724  0.48950513  0.35175370    -0.32900
C706        C  0.75597434  0.47502226  0.39009686     0.36200
H707        H  0.78806999  0.42084908  0.29920097     0.16600
O708        O  0.75581423  0.44529392  0.21795410    -0.60400
H709        H  0.72500774  0.51001030  0.36833704     0.16600
O710        O  0.75676567  0.48576136  0.44604553    -0.60500
H711        H  0.77202236  0.50279753  0.44552689     0.43600
H712        H  0.75133968  0.42218712  0.21755003     0.43500
C713        C  0.71998311  0.18909292  0.62889879    -0.05500
C714        C  0.71508974  0.18459584  0.68856114    -0.33000
C715        C  0.73124574  0.20244396  0.72895770     0.36300
C716        C  0.75205555  0.22575433  0.70939797    -0.05900
C717        C  0.76005246  0.22510375  0.64951056    -0.32900
C718        C  0.74356265  0.20832712  0.60981118     0.36200
H719        H  0.69792812  0.16832595  0.70381572     0.16600
O720        O  0.72626295  0.19752728  0.78712633    -0.60400
H721        H  0.77874050  0.23839174  0.63183244     0.16600
O722        O  0.75030899  0.21155030  0.55189131    -0.60500
H723        H  0.76329355  0.19317856  0.54187859     0.43600
H724        H  0.70462781  0.20042306  0.79466000     0.43500
C725        C  0.74404605  0.27184040  0.78618977    -0.05500
C726        C  0.75657548  0.29437411  0.82381910    -0.33000
C727        C  0.73970601  0.30890303  0.86758686     0.36300
C728        C  0.70884690  0.30329237  0.87243127    -0.05900
C729        C  0.69531621  0.28595434  0.82834259    -0.32900
C730        C  0.71253078  0.27090148  0.78431540     0.36200
H731        H  0.78044584  0.29787321  0.82356350     0.16600
O732        O  0.75409436  0.32750110  0.90670046    -0.60400
H733        H  0.67130619  0.28399414  0.82796814     0.16600
O734        O  0.69852399  0.25839120  0.73746032    -0.60500
H735        H  0.68165572  0.24541103  0.75274748     0.43600
H736        H  0.76173860  0.31245187  0.93579293     0.43500
C737        C  0.80808786  0.31520871  0.62453811    -0.05500
C738        C  0.82660949  0.30123294  0.66563501    -0.33000
C739        C  0.81449038  0.28203494  0.71066961     0.36300
C740        C  0.78350415  0.27565266  0.71323092    -0.05900
C741        C  0.76538365  0.29353326  0.67629978    -0.32900
C742        C  0.77711866  0.31240298  0.63252374     0.36200
H743        H  0.85045567  0.30470587  0.66230322     0.16600
O744        O  0.83308989  0.27030275  0.75134150    -0.60400
H745        H  0.74143348  0.29087825  0.67840513     0.16600
O746        O  0.75774265  0.32796495  0.59744393    -0.60500
H747        H  0.75067918  0.31159529  0.57015784     0.43600
H748        H  0.83334405  0.28673589  0.78204919     0.43500
C749        C  0.78526834  0.23046255  0.79486861    -0.05500
C750        C  0.77678036  0.22992935  0.85443182    -0.33000
C751        C  0.79116494  0.21175173  0.89475662     0.36300
C752        C  0.81267147  0.18944625  0.87711176    -0.05900
C753        C  0.82161541  0.18856801  0.81830832    -0.32900
C754        C  0.80832551  0.20898135  0.77738374     0.36200
H755        H  0.75756343  0.24222993  0.87191016     0.16600
O756        O  0.78228502  0.21459819  0.95182265    -0.60400
H757        H  0.83782247  0.17109453  0.80354437     0.19800
O758        O  0.81633270  0.20601372  0.71995290    -0.60500
H759        H  0.83789735  0.21087457  0.71708153     0.43600
H760        H  0.79364318  0.23292815  0.96671439     0.43500
C761        C  0.74946186  0.26723581  0.20846706    -0.05500
C762        C  0.74509648  0.25516651  0.15210968    -0.33000
C763        C  0.72839377  0.27141054  0.11181575     0.36300
C764        C  0.71391375  0.29987447  0.12718169    -0.05900
C765        C  0.71507771  0.31046269  0.18444721    -0.32900
C766        C  0.73190516  0.29403487  0.22530960     0.36200
H767        H  0.75418564  0.23260389  0.13808310     0.16600
O768        O  0.72722799  0.25964027  0.05657425    -0.60400
H769        H  0.70247149  0.33119537  0.19798395     0.16600
O770        O  0.73099492  0.30426068  0.28162888    -0.60500
H771        H  0.73814453  0.32658389  0.28097226     0.43600
H772        H  0.71269036  0.24192165  0.05877634     0.43500
C773        C  0.74875427  0.23544740  0.29861582    -0.05500
C774        C  0.72738231  0.21285487  0.28133668    -0.33000
C775        C  0.70868284  0.19716581  0.32178171     0.36300
C776        C  0.71145002  0.20305566  0.38106151    -0.05900
C777        C  0.72992240  0.22759289  0.39841519    -0.32900
C778        C  0.74682138  0.24514361  0.35796990     0.36200
H779        H  0.72583976  0.20657278  0.23614137     0.16600
O780        O  0.68836989  0.17554471  0.30296700    -0.60400
H781        H  0.73020099  0.23428625  0.44363114     0.16600
O782        O  0.75952216  0.27266601  0.37722158    -0.60500
H783        H  0.74281908  0.28740984  0.38636434     0.43600
H784        H  0.66990690  0.18793890  0.29734361     0.43500
C785        C  0.79391414  0.27235765  0.27885599    -0.05500
C786        C  0.81196477  0.26014391  0.32288722    -0.33000
C787        C  0.82468965  0.28067348  0.36330013     0.36300
C788        C  0.82030605  0.31372684  0.35836592    -0.05900
C789        C  0.80901345  0.32563555  0.30681027    -0.32900
C790        C  0.79744106  0.30507977  0.26554323     0.36200
H791        H  0.81243537  0.23478456  0.33110968     0.16600
O792        O  0.83738678  0.26802284  0.41129465    -0.60400
H793        H  0.80808405  0.35107438  0.29947418     0.16600
O794        O  0.78918126  0.31751861  0.21367657    -0.60500
H795        H  0.80772786  0.31833946  0.18953500     0.43600
H796        H  0.85880610  0.26584691  0.40069120     0.43500
C797        C  0.78994294  0.22469370  0.21750393    -0.05500
C798        C  0.80770305  0.23556689  0.16990718    -0.33000
C799        C  0.81819666  0.21474240  0.12663215     0.36300
C800        C  0.81253817  0.18195100  0.13141629    -0.05900
C801        C  0.79995160  0.17043921  0.18362576    -0.32900
C802        C  0.78951272  0.19134920  0.22736863     0.36200
H803        H  0.81034123  0.26083713  0.16252355     0.16600
O804        O  0.83111218  0.22716756  0.07723501    -0.60400
H805        H  0.79779331  0.14501604  0.19027333     0.16600
O806        O  0.78074306  0.17903248  0.28011164    -0.60500
H807        H  0.76595286  0.16216073  0.27228347     0.43600
H808        H  0.85248939  0.22940609  0.08574198     0.43500
C809        C  0.76897715  0.74944319  0.25153954    -0.02600
C810        C  0.76506784  0.74899837  0.75115842    -0.02600
O811        O  0.77799497  0.91478163  0.44867754    -0.85400
O812        O  0.80322894  0.85796791  0.41519104    -0.82500
C813        C  0.82200144  0.83580404  0.40832107     0.98000
O814        O  0.84200490  0.83138927  0.44535636    -0.82500
O815        O  0.88166282  0.88193674  0.42770614    -0.85100
C816        C  0.89040653  0.91056022  0.42778329     1.02600
O817        O  0.87661896  0.93141289  0.45718576    -0.77900
O818        O  0.81901402  0.93858584  0.41975289    -0.78100
C819        C  0.79172116  0.93311768  0.41394561     1.02500
O820        O  0.78298505  0.89667371  0.56849759    -0.85400
O821        O  0.80164313  0.83654663  0.53135820    -0.82500
C822        C  0.81834775  0.83259388  0.57351074     0.98100
O823        O  0.84408148  0.84445139  0.57111468    -0.82500
O824        O  0.88584444  0.89130785  0.54810823    -0.85100
C825        C  0.87976372  0.91603541  0.57733981     1.02500
O826        O  0.85516152  0.92992746  0.57245120    -0.77900
O827        O  0.79867878  0.94331972  0.53947188    -0.78100
C828        C  0.78421587  0.92649142  0.57596085     1.02500
Cr829      Cr  0.79404817  0.87741943  0.49135879     1.93700
Cr830      Cr  0.86092191  0.86392146  0.49797281     1.93200
Cr831      Cr  0.83684124  0.93272089  0.49668478     1.39100
O832        O  0.83088960  0.89137281  0.49482825    -1.23200
O833        O  0.77818890  0.57703322  0.04326563    -0.85400
O834        O  0.80020738  0.63521143  0.07782303    -0.82500
C835        C  0.81709883  0.65895611  0.08330673     0.98000
O836        O  0.83730343  0.66463564  0.04496436    -0.82500
O837        O  0.87816697  0.61790601  0.06731566    -0.85100
C838        C  0.88611103  0.58951936  0.07550745     1.02600
O839        O  0.87696916  0.56702621  0.04446535    -0.77900
O840        O  0.81906048  0.55572903  0.07343004    -0.78100
C841        C  0.79143984  0.55947757  0.07829587     1.02500
O842        O  0.78644030  0.59564274  0.92544057    -0.85400
O843        O  0.80092848  0.65608934  0.96027224    -0.82500
C844        C  0.81964726  0.66330566  0.92074335     0.98100
O845        O  0.84519354  0.65079133  0.92048965    -0.82500
O846        O  0.89021029  0.60671417  0.94795280    -0.85100
C847        C  0.88746354  0.58053070  0.92153466     1.02500
O848        O  0.86344501  0.56520607  0.92520008    -0.77900
O849        O  0.80531143  0.54977464  0.95092991    -0.78100
C850        C  0.78922625  0.56605355  0.91751615     1.02500
Cr851      Cr  0.79435295  0.61520831  0.00146828     1.93700
Cr852      Cr  0.86043764  0.63291949  0.99468360     1.93200
Cr853      Cr  0.84046864  0.56250565  0.99837128     1.39100
O854        O  0.83203812  0.60342091  0.99787811    -1.23200
C855        C  0.97348402  0.97731935  0.70487434     0.86400
C856        C  0.99196722  0.00249578  0.67177215    -0.53800
C857        C  0.01107429  0.52004566  0.70604149     0.09300
C858        C  0.00755464  0.51164160  0.77068783     0.20300
C859        C  0.99636411  0.95777176  0.73822862    -0.54500
C860        C  0.01412758  0.97557432  0.77245188     0.09400
C861        C  0.95676010  0.99580664  0.75269073    -0.54100
C862        C  0.97392485  0.51401004  0.78391894     0.10000
H863        H  0.99156701  0.00497376  0.62512377     0.14500
H864        H  0.02125679  0.52661994  0.79909043     0.00300
H865        H  0.99726057  0.93214877  0.74013894     0.14800
H866        H  0.93323550  0.49428811  0.75438380     0.14600
O867        O  0.18996526  0.90468166  0.08967827    -0.85400
O868        O  0.17689623  0.84358708  0.05372369    -0.82500
C869        C  0.15567584  0.83560873  0.08722793     0.98000
O870        O  0.12963285  0.84579723  0.07924799    -0.82500
O871        O  0.08899393  0.89414622  0.05720282    -0.85100
C872        C  0.09376050  0.91721097  0.09153857     1.02600
O873        O  0.11768319  0.93291302  0.08780075    -0.77900
O874        O  0.17495978  0.95029323  0.05625546    -0.78100
C875        C  0.18976662  0.93464639  0.09205954     1.02500
O876        O  0.20013907  0.92204171  0.97031132    -0.85400
O877        O  0.18162523  0.86419127  0.93742892    -0.82500
C878        C  0.16476119  0.84140941  0.92539056     0.98100
O879        O  0.14074004  0.83695620  0.95467549    -0.82500
O880        O  0.10246883  0.88794315  0.93375551    -0.85100
C881        C  0.09303772  0.91630698  0.93379732     1.02500
O882        O  0.10117401  0.93537743  0.97203110    -0.77900
O883        O  0.15986413  0.94311463  0.93669007    -0.78100
C884        C  0.18726084  0.93685908  0.93075081     1.02500
Cr885      Cr  0.18424842  0.88436481  0.01303918     1.93700
Cr886      Cr  0.11756513  0.86809936  0.00657685     1.93200
Cr887      Cr  0.13907785  0.93739836  0.01301890     1.39100
O888        O  0.14677172  0.89629289  0.01140562    -1.23200
O889        O  0.19904636  0.60267505  0.41977729    -0.85400
O890        O  0.18326653  0.66330768  0.45878154    -0.82500
C891        C  0.16449732  0.66813887  0.42061663     0.98000
O892        O  0.13878721  0.65632157  0.42662737    -0.82500
O893        O  0.09742532  0.60896654  0.45631739    -0.85100
C894        C  0.10192817  0.58379080  0.42692218     1.02600
O895        O  0.12576876  0.56823590  0.43123358    -0.77900
O896        O  0.18437043  0.55638916  0.45365720    -0.78100
C897        C  0.19851925  0.57269392  0.41585704     1.02500
O898        O  0.20985021  0.58558311  0.53746687    -0.85400
O899        O  0.18655091  0.64264255  0.57335529    -0.82500
C900        C  0.16839058  0.66494728  0.58393521     0.98100
O901        O  0.14638641  0.66938693  0.55126444    -0.82500
O902        O  0.10709426  0.61975695  0.57614914    -0.85100
C903        C  0.10000203  0.59086588  0.58294078     1.02500
O904        O  0.11130256  0.56947129  0.55114654    -0.77900
O905        O  0.17008329  0.56410349  0.57655098    -0.78100
C906        C  0.19759242  0.56947324  0.57735241     1.02500
Cr907      Cr  0.19182511  0.62259387  0.49723682     1.93700
Cr908      Cr  0.12477245  0.63678634  0.50214389     1.93200
Cr909      Cr  0.14844749  0.56767299  0.50303618     1.39100
O910        O  0.15464755  0.60904079  0.50065255    -1.23200
C911        C  0.21683087  0.75587468  0.74766936    -0.02600
C912        C  0.21787295  0.75127876  0.24204712    -0.02600
C913        C  0.96609772  0.52823332  0.23010874     0.86400
C914        C  0.95121433  0.50373007  0.27078702    -0.53800
C915        C  0.97053192  0.98671165  0.30106487     0.09300
C916        C  0.00351609  0.99326748  0.28671450     0.20300
C917        C  0.98746819  0.54663993  0.26820106    -0.54500
C918        C  0.00714868  0.52791084  0.29641845     0.09400
C919        C  0.98640619  0.50754963  0.19028791    -0.54100
C920        C  0.00576087  0.98851488  0.22083210     0.10000
H921        H  0.92760763  0.49922099  0.27504494     0.14500
H922        H  0.01879510  0.97807804  0.31154024     0.00300
H923        H  0.98769815  0.57242574  0.27108526     0.14800
H924        H  0.98550600  0.50831205  0.14352516     0.14600
O925        O  0.28406144  0.85380357  0.55959431    -0.85400
O926        O  0.30268758  0.91488146  0.52742735    -0.82500
C927        C  0.31911714  0.91828688  0.57021295     0.98000
O928        O  0.34502255  0.90690596  0.56744014    -0.82500
O929        O  0.38746261  0.86142356  0.54288988    -0.85100
C930        C  0.38166435  0.83622165  0.57079494     1.02600
O931        O  0.35807649  0.82084503  0.56293219    -0.77900
O932        O  0.30142916  0.80778556  0.52963493    -0.78100
C933        C  0.28483409  0.82375865  0.56381539     1.02500
O934        O  0.28011094  0.83793930  0.44119767    -0.85400
O935        O  0.30524572  0.89463796  0.41029171    -0.82500
C936        C  0.32396344  0.91672246  0.40360165     0.98100
O937        O  0.34330031  0.92175045  0.44166329    -0.82500
O938        O  0.38367873  0.87246207  0.42242559    -0.85100
C939        C  0.39232403  0.84385561  0.41954404     1.02500
O940        O  0.37876849  0.82218870  0.44727159    -0.77900
O941        O  0.32066604  0.81412576  0.41086720    -0.78100
C942        C  0.29305205  0.81880520  0.40699355     1.02500
Cr943      Cr  0.29582054  0.87455259  0.48504764     1.93700
Cr944      Cr  0.36238498  0.88886886  0.49338034     1.93200
Cr945      Cr  0.33925715  0.81950494  0.48741062     1.39100
O946        O  0.33277545  0.86087621  0.48844628    -1.23200
O947        O  0.28246124  0.66784776  0.94054697    -0.85400
O948        O  0.30314501  0.60917912  0.91163199    -0.82500
C949        C  0.32091167  0.58646553  0.90303650     0.98000
O950        O  0.34413676  0.58376714  0.93256583    -0.82500
O951        O  0.38313407  0.63491338  0.91027466    -0.85100
C952        C  0.39324775  0.66290781  0.91260390     1.02600
O953        O  0.38126795  0.68313983  0.94595666    -0.77900
O954        O  0.32298225  0.69274031  0.91124253    -0.78100
C955        C  0.29546538  0.68736966  0.90663390     1.02500
O956        O  0.28826465  0.65260016  0.06070005    -0.85400
O957        O  0.30434624  0.59144954  0.03224629    -0.82500
C958        C  0.32526272  0.58483180  0.06557637     0.98100
O959        O  0.35104088  0.59560463  0.05580211    -0.82500
O960        O  0.39153350  0.64248537  0.03199551    -0.85100
C961        C  0.38472732  0.66443596  0.06755102     1.02500
O962        O  0.36123236  0.68055921  0.06202188    -0.77900
O963        O  0.30475155  0.69832863  0.02956232    -0.78100
C964        C  0.28822797  0.68251800  0.06381291     1.02500
Cr965      Cr  0.29759818  0.63110779  0.98611429     1.93700
Cr966      Cr  0.36493256  0.61621879  0.98233431     1.93200
Cr967      Cr  0.34207814  0.68537761  0.98680092     1.39100
O968        O  0.33494219  0.64405603  0.98458041    -1.23200
C969        C  0.26067017  0.99637951  0.75117334    -0.02600
C970        C  0.27303026  0.50272179  0.24357131    -0.02600
C971        C  0.47309047  0.77702637  0.70628420     0.86400
C972        C  0.45635255  0.75376105  0.74620649    -0.53800
C973        C  0.47400499  0.73538199  0.77900372     0.09300
C974        C  0.50724297  0.74325945  0.77239978     0.20300
C975        C  0.49194566  0.79710977  0.74725506    -0.54500
C976        C  0.50980974  0.77945768  0.78149601     0.09400
C977        C  0.49607156  0.75644596  0.67276251    -0.54100
C978        C  0.51382180  0.73888083  0.70762399     0.10000
H979        H  0.43230147  0.75106942  0.74682311     0.14500
H980        H  0.52167168  0.72875689  0.80034111     0.00300
H981        H  0.49205628  0.82279313  0.74965780     0.14800
H982        H  0.49807067  0.75572783  0.62590647     0.14600
C983        C  0.71317857  0.99759746  0.75322576    -0.02600
O984        O  0.70050410  0.64262222  0.57729826    -0.85400
O985        O  0.68208859  0.58405017  0.53953630    -0.82500
C986        C  0.66256451  0.57820290  0.57860954     0.98000
O987        O  0.63770546  0.59212902  0.57768604    -0.82500
O988        O  0.59749587  0.64099472  0.56081367    -0.85100
C989        C  0.60401683  0.66356100  0.59455476     1.02600
O990        O  0.62917468  0.67657307  0.59025252    -0.77900
O991        O  0.68604530  0.69053683  0.55402471    -0.78100
C992        C  0.70059598  0.67214973  0.58603950     1.02500
O993        O  0.70711309  0.66450334  0.45787274    -0.85400
O994        O  0.68273085  0.60845262  0.42294449    -0.82500
C995        C  0.66388604  0.58685568  0.41500115     0.98100
O996        O  0.64269789  0.58242271  0.45175781    -0.82500
O997        O  0.60535957  0.63517527  0.43805313    -0.85100
C998        C  0.59706799  0.66400408  0.44006094     1.02500
O999        O  0.60867815  0.68289809  0.47544189    -0.77900
O1000       O  0.66647873  0.69014608  0.43614087    -0.78100
C1001       C  0.69359738  0.68426209  0.42651613     1.02500
Cr1002     Cr  0.69043377  0.62594441  0.49992797     1.93700
Cr1003     Cr  0.62314557  0.61428098  0.50708955     1.93200
Cr1004     Cr  0.64808170  0.68196518  0.51337450     1.39100
O1005       O  0.65374694  0.64067501  0.50639558    -1.23200
C1006       C  0.71416005  0.99743084  0.25010710    -0.02600
O1007       O  0.70187023  0.83206900  0.95877988    -0.85400
O1008       O  0.67960970  0.89022908  0.93204227    -0.82500
C1009       C  0.66053292  0.91179450  0.92554541     0.98000
O1010       O  0.63850437  0.91438682  0.96079354    -0.82500
O1011       O  0.60191665  0.86234141  0.93898602    -0.85100
C1012       C  0.59316344  0.83376481  0.93797992     1.02600
O1013       O  0.60367036  0.81359374  0.97199379    -0.77900
O1014       O  0.66188492  0.80763725  0.93090614    -0.78100
C1015       C  0.68896684  0.81474590  0.92247313     1.02500
O1016       O  0.69501375  0.84650442  0.08065325    -0.85400
O1017       O  0.67794695  0.90746589  0.05315235    -0.82500
C1018       C  0.65728412  0.91298945  0.08990722     0.98100
O1019       O  0.63185981  0.90088032  0.08420751    -0.82500
O1020       O  0.59243157  0.85245958  0.06128193    -0.85100
C1021       C  0.59855316  0.82900493  0.09344791     1.02500
O1022       O  0.62301335  0.81444334  0.08696054    -0.77900
O1023       O  0.68036561  0.80048930  0.04816426    -0.78100
C1024       C  0.69495637  0.81654255  0.08366811     1.02500
Cr1025     Cr  0.68580637  0.86809414  0.00645452     1.93700
Cr1026     Cr  0.61850321  0.88068907  0.01112747     1.93200
Cr1027     Cr  0.64278932  0.81228380  0.00941648     1.39100
O1028       O  0.64892251  0.85386668  0.00908601    -1.23200
C1029       C  0.46682289  0.72105178  0.22584447     0.86400
C1030       C  0.48912968  0.74053553  0.18850621    -0.53800
C1031       C  0.50819211  0.75885397  0.21947161     0.09300
C1032       C  0.50322828  0.75606819  0.28529025     0.20300
C1033       C  0.48614012  0.70189980  0.26675872    -0.54500
C1034       C  0.50545273  0.71980452  0.29781414     0.09400
C1035       C  0.45148121  0.74656149  0.26377777    -0.54100
C1036       C  0.47021877  0.76523775  0.29387534     0.10000
H1037       H  0.48964140  0.74002975  0.14162651     0.14500
H1038       H  0.51854603  0.77120191  0.31004954     0.00300
H1039       H  0.48506736  0.67614609  0.26979651     0.14800
H1040       H  0.42795722  0.75201436  0.26347594     0.14600
C1041       C  0.57514426  0.81588791  0.13276050    -0.05500
C1042       C  0.54551449  0.81716575  0.11543913    -0.33000
C1043       C  0.52337972  0.79936217  0.14408317     0.36300
C1044       C  0.53057600  0.78035013  0.19185259    -0.05900
C1045       C  0.55964094  0.78134936  0.21248767    -0.32900
C1046       C  0.58190927  0.79889457  0.18318822     0.36200
H1047       H  0.53967507  0.83066463  0.07752737     0.16600
O1048       O  0.49468996  0.80103685  0.12556232    -0.60400
H1049       H  0.56540904  0.76744334  0.24995774     0.16600
O1050       O  0.61027749  0.79868957  0.20339049    -0.60500
H1051       H  0.61148344  0.81780060  0.22835784     0.43600
H1052       H  0.49489111  0.79017530  0.08748679     0.43500
C1053       C  0.69206388  0.97473853  0.21894961    -0.05500
C1054       C  0.69186898  0.94145195  0.22736911    -0.33000
C1055       C  0.67888067  0.92104804  0.18726538     0.36300
C1056       C  0.66388926  0.93355170  0.13987121    -0.05900
C1057       C  0.65927130  0.96640368  0.13701541    -0.32900
C1058       C  0.67261071  0.98696842  0.17669522     0.36200
H1059       H  0.70318937  0.93072987  0.26297144     0.16600
O1060       O  0.68284296  0.88886578  0.19256766    -0.60400
H1061       H  0.64696992  0.97635430  0.10171792     0.16600
O1062       O  0.66859730  0.01917869  0.17079583    -0.60500
H1063       H  0.67889842  0.02516223  0.13393930     0.43600
H1064       H  0.66356415  0.88061402  0.20806812     0.43500
C1065       C  0.57284352  0.67657731  0.40359434    -0.05500
C1066       C  0.55664606  0.70338419  0.42314551    -0.33000
C1067       C  0.53474528  0.71745471  0.38954660     0.36300
C1068       C  0.52833907  0.70487164  0.33502956    -0.05900
C1069       C  0.54408139  0.67763521  0.31574339    -0.32900
C1070       C  0.56603991  0.66347068  0.34952863     0.36200
H1071       H  0.56087490  0.71358193  0.46512444     0.16600
O1072       O  0.51874793  0.74259381  0.41175088    -0.60400
H1073       H  0.53977644  0.66761270  0.27368156     0.16600
O1074       O  0.58161119  0.63783251  0.32800874    -0.60500
H1075       H  0.56957582  0.61898726  0.33947751     0.43600
H1076       H  0.53262077  0.76092888  0.41065976     0.43500
C1077       C  0.66870258  0.56526814  0.36474528    -0.05500
C1078       C  0.66131960  0.53297051  0.36906019    -0.33000
C1079       C  0.67307412  0.51088695  0.32882836     0.36300
C1080       C  0.69320670  0.52099554  0.28387762    -0.05900
C1081       C  0.69525851  0.55401157  0.27382466    -0.32900
C1082       C  0.68399892  0.57587613  0.31441376     0.36200
H1083       H  0.64845343  0.52437622  0.40612740     0.16600
O1084       O  0.66768140  0.97996420  0.33638327    -0.60400
H1085       H  0.70687771  0.56339679  0.23611063     0.16600
O1086       O  0.68931501  0.60761517  0.30566407    -0.60500
H1087       H  0.67448787  0.61436893  0.27721678     0.43600
H1088       H  0.67796493  0.97337705  0.37179007     0.43500
C1089       C  0.69466045  0.51484809  0.71090727    -0.05500
C1090       C  0.69205980  0.50473980  0.65256768    -0.33000
C1091       C  0.68136709  0.52489330  0.60969023     0.36300
C1092       C  0.66936043  0.55462547  0.62457048    -0.05900
C1093       C  0.66593838  0.56219012  0.68362414    -0.32900
C1094       C  0.67765321  0.54217961  0.72665644     0.36200
H1095       H  0.70005560  0.48168622  0.63840350     0.16600
O1096       O  0.68270953  0.51520513  0.55302684    -0.60400
H1097       H  0.65534960  0.58434843  0.69639111     0.16600
O1098       O  0.67356141  0.55064565  0.78341818    -0.60500
H1099       H  0.65385740  0.54180692  0.79510542     0.43600
H1100       H  0.70405881  0.51628159  0.54116060     0.43500
C1101       C  0.69231909  0.97826199  0.79646778    -0.05500
C1102       C  0.67846582  0.94974286  0.77921889    -0.33000
C1103       C  0.66717512  0.92782580  0.82046117     0.36300
C1104       C  0.66601959  0.93583659  0.87954997    -0.05900
C1105       C  0.67355612  0.96668727  0.89547582    -0.32900
C1106       C  0.68647624  0.98789025  0.85516361     0.36200
H1107       H  0.67890104  0.94298650  0.73406923     0.16600
O1108       O  0.65859976  0.89816080  0.80280534    -0.60400
H1109       H  0.67118184  0.97385376  0.94037277     0.16600
O1110       O  0.69279350  0.01809019  0.87385923    -0.60500
H1111       H  0.70665772  0.01567005  0.90618550     0.43600
H1112       H  0.63667772  0.89938425  0.79987139     0.43500
C1113       C  0.53691412  0.71717323  0.68497374    -0.05500
C1114       C  0.52874613  0.69055523  0.65283698    -0.33000
C1115       C  0.55045986  0.67095530  0.62704181     0.36300
C1116       C  0.58092176  0.67820623  0.63289679    -0.05900
C1117       C  0.58882571  0.70389265  0.66838199    -0.32900
C1118       C  0.56704589  0.72325142  0.69438864     0.36200
H1119       H  0.50544090  0.68543454  0.64655681     0.16600
O1120       O  0.54156585  0.64564517  0.59435435    -0.60400
H1121       H  0.61197552  0.71010027  0.67360528     0.16600
O1122       O  0.57546984  0.74950448  0.72505574    -0.60500
H1123       H  0.57745146  0.74195869  0.76534855     0.43600
H1124       H  0.53719195  0.65472264  0.55595088     0.43500
C1125       C  0.53083257  0.79434268  0.82122938    -0.05500
C1126       C  0.52847345  0.78748022  0.88022236    -0.33000
C1127       C  0.54790399  0.80145424  0.91886793     0.36300
C1128       C  0.57012455  0.82276340  0.89860868    -0.05900
C1129       C  0.57227840  0.82995149  0.83954419    -0.32900
C1130       C  0.55282588  0.81579717  0.80080815     0.36200
H1131       H  0.51142426  0.77136812  0.89644917     0.16600
O1132       O  0.54467541  0.79463361  0.97668851    -0.60400
H1133       H  0.58979237  0.84547924  0.82314659     0.16600
O1134       O  0.55656396  0.82154693  0.74272485    -0.60500
H1135       H  0.54707816  0.84248750  0.73623623     0.43600
H1136       H  0.55383798  0.77337464  0.98155040     0.43500
C1137       C  0.46102087  0.70913106  0.81339089    -0.05500
C1138       C  0.46062843  0.71161900  0.87339322    -0.33000
C1139       C  0.44031381  0.69387730  0.90671747     0.36300
C1140       C  0.42008560  0.67324006  0.87980463    -0.05900
C1141       C  0.42307069  0.66775690  0.82029187    -0.32900
C1142       C  0.44334119  0.68584104  0.78683889     0.36200
H1143       H  0.47406707  0.72941201  0.89415071     0.16600
O1144       O  0.43847812  0.69902802  0.96525393    -0.60400
H1145       H  0.40797110  0.65173732  0.79912567     0.16600
O1146       O  0.44457025  0.68206522  0.72790571    -0.60500
H1147       H  0.42641437  0.69254076  0.71370513     0.43600
H1148       H  0.45649377  0.68890152  0.98075633     0.43500
C1149       C  0.40543180  0.67296208  0.11343016    -0.05500
C1150       C  0.43623930  0.66905658  0.10448192    -0.33000
C1151       C  0.45631802  0.68240667  0.14289477     0.36300
C1152       C  0.44569083  0.70054748  0.19064985    -0.05900
C1153       C  0.41482666  0.69986093  0.20367300    -0.32900
C1154       C  0.39483947  0.68697357  0.16503448     0.36200
H1155       H  0.44484445  0.65687987  0.06631661     0.16600
O1156       O  0.48624457  0.67891200  0.13165455    -0.60400
H1157       H  0.40558420  0.70944924  0.24350159     0.16600
O1158       O  0.36492891  0.68777548  0.17853889    -0.60500
H1159       H  0.35851840  0.70982677  0.17006523     0.43600
H1160       H  0.49217228  0.66010305  0.15446704     0.43500
C1161       C  0.31055212  0.56047985  0.86574695    -0.05500
C1162       C  0.28507372  0.54495396  0.88563089    -0.33000
C1163       C  0.26897499  0.52496363  0.85025525     0.36300
C1164       C  0.27936790  0.51765544  0.79237133    -0.05900
C1165       C  0.30507127  0.53435637  0.77232130    -0.32900
C1166       C  0.32064157  0.55536688  0.80845216     0.36200
H1167       H  0.27602147  0.55035286  0.92850502     0.16600
O1168       O  0.24111847  0.51667957  0.87099407    -0.60400
H1169       H  0.31259240  0.53198310  0.72769421     0.16600
O1170       O  0.34486498  0.57162467  0.78664671    -0.60500
H1171       H  0.33681652  0.59194177  0.77190468     0.43600
H1172       H  0.24399394  0.50530357  0.90801596     0.43500
C1173       C  0.31888093  0.56439766  0.11653501    -0.05500
C1174       C  0.32109163  0.53134790  0.11182232    -0.33000
C1175       C  0.30920848  0.51145022  0.15552679     0.36300
C1176       C  0.29355231  0.52457044  0.20443586    -0.05900
C1177       C  0.29612274  0.55777585  0.21267801    -0.32900
C1178       C  0.30779746  0.57759131  0.16861795     0.36200
H1179       H  0.33069930  0.52083933  0.07282545     0.16600
O1180       O  0.30855588  0.97799313  0.14887753    -0.60400
H1181       H  0.28817910  0.56893429  0.25219648     0.16600
O1182       O  0.30784747  0.60995320  0.17636207    -0.60500
H1183       H  0.28665102  0.61641273  0.17659831     0.43600
H1184       H  0.29643096  0.97313168  0.11484480     0.43500
C1185       C  0.41928047  0.83418601  0.38644161    -0.05500
C1186       C  0.41963543  0.83479769  0.32601341    -0.33000
C1187       C  0.43935176  0.81514100  0.29440744     0.36300
C1188       C  0.45852932  0.79418140  0.32350807    -0.05900
C1189       C  0.46086364  0.79692306  0.38332785    -0.32900
C1190       C  0.44130371  0.81668593  0.41490289     0.36200
H1191       H  0.40287426  0.84811703  0.30353857     0.16600
O1192       O  0.43762732  0.81417992  0.23535570    -0.60400
H1193       H  0.47558568  0.78140565  0.40632693     0.16600
O1194       O  0.44226945  0.81692725  0.47411793    -0.60500
H1195       H  0.43320494  0.79651065  0.48684136     0.43600
H1196       H  0.45399354  0.82806117  0.22074171     0.43500
C1197       C  0.40443728  0.82240419  0.60729164    -0.05500
C1198       C  0.40886778  0.78950130  0.60495106    -0.33000
C1199       C  0.43235161  0.77540474  0.63328094     0.36300
C1200       C  0.45117651  0.79396686  0.66780048    -0.05900
C1201       C  0.44684911  0.82722006  0.66919930    -0.32900
C1202       C  0.42395869  0.84141355  0.63860438     0.36200
H1203       H  0.39462643  0.77462980  0.57930571     0.16600
O1204       O  0.43595264  0.74305556  0.62903593    -0.60400
H1205       H  0.46062226  0.84272464  0.69400700     0.16600
O1206       O  0.42015941  0.87376306  0.64137146    -0.60500
H1207       H  0.43442629  0.88259983  0.61212626     0.43600
H1208       H  0.44618904  0.73947975  0.59106971     0.43500
C1209       C  0.30649969  0.93506628  0.62218474    -0.05500
C1210       C  0.27554704  0.93729718  0.62664395    -0.33000
C1211       C  0.26134045  0.95450278  0.67042729     0.36300
C1212       C  0.27781640  0.97150857  0.71200520    -0.05900
C1213       C  0.30893015  0.96610538  0.71176471    -0.32900
C1214       C  0.32329037  0.94843355  0.66680271     0.36200
H1215       H  0.26175689  0.92609749  0.59481221     0.16600
O1216       O  0.23102958  0.95705102  0.66844011    -0.60400
H1217       H  0.32243727  0.97598252  0.74514534     0.16600
O1218       O  0.35359656  0.94494825  0.66647976    -0.60500
H1219       H  0.36159429  0.96470239  0.64854206     0.43600
H1220       H  0.22321108  0.93629506  0.68245210     0.43500
C1221       C  0.32091650  0.93770239  0.35266323    -0.05500
C1222       C  0.32635685  0.97044332  0.35635645    -0.33000
C1223       C  0.31343838  0.99145111  0.31686431     0.36300
C1224       C  0.29398391  0.97952283  0.27446032    -0.05900
C1225       C  0.29513592  0.94659863  0.26322231    -0.32900
C1226       C  0.30789075  0.92577087  0.30241231     0.36200
H1227       H  0.33789322  0.98005329  0.39291838     0.16600
O1228       O  0.31720293  0.02362267  0.32391671    -0.60400
H1229       H  0.28446188  0.93643702  0.22629800     0.16600
O1230       O  0.30538005  0.89362824  0.29344723    -0.60500
H1231       H  0.32554745  0.88651271  0.28073140     0.43600
H1232       H  0.30695557  0.02912738  0.36109068     0.43500
C1233       C  0.23979758  0.76812931  0.28344687    -0.05500
C1234       C  0.22666931  0.78499614  0.33037715    -0.33000
C1235       C  0.24353710  0.80144109  0.37001518     0.36300
C1236       C  0.27488025  0.80104451  0.36524789    -0.05900
C1237       C  0.28847272  0.78242638  0.32188651    -0.32900
C1238       C  0.27153873  0.76566270  0.28172342     0.36200
H1239       H  0.20266385  0.78629270  0.33523590     0.16600
O1240       O  0.22880919  0.81789847  0.41330293    -0.60400
H1241       H  0.31248716  0.78027956  0.31960045     0.16600
O1242       O  0.28625024  0.74441171  0.24609385    -0.60500
H1243       H  0.30203469  0.75659830  0.22505011     0.43600
H1244       H  0.22622089  0.80247123  0.44547535     0.43500
C1245       C  0.26831172  0.69966745  0.10562036    -0.05500
C1246       C  0.26948646  0.73304257  0.10882047    -0.33000
C1247       C  0.25226281  0.74992288  0.14997883     0.36300
C1248       C  0.23388028  0.73341683  0.19082277    -0.05900
C1249       C  0.22980075  0.70042525  0.18129780    -0.32900
C1250       C  0.24720217  0.68360960  0.14075211     0.36200
H1251       H  0.28422862  0.74631269  0.07992566     0.16600
O1252       O  0.25398639  0.78253737  0.15076279    -0.60400
H1253       H  0.21331160  0.68690598  0.20556484     0.16600
O1254       O  0.24332761  0.65136097  0.13633709    -0.60500
H1255       H  0.22791436  0.64853268  0.10697029     0.43600
H1256       H  0.27494206  0.78789171  0.15868398     0.43500
C1257       C  0.23897522  0.73812870  0.78806840    -0.05500
C1258       C  0.27041931  0.73999677  0.78197381    -0.33000
C1259       C  0.28920296  0.72331920  0.81902018     0.36300
C1260       C  0.27704864  0.70495647  0.86473032    -0.05900
C1261       C  0.24602334  0.70378715  0.87216995    -0.32900
C1262       C  0.22727582  0.72020988  0.83562415     0.36200
H1263       H  0.28104622  0.75493396  0.74967681     0.16600
O1264       O  0.31941681  0.72547105  0.81027865    -0.60400
H1265       H  0.23585976  0.69015759  0.90719862     0.16600
O1266       O  0.19712619  0.71721737  0.84497881    -0.60500
H1267       H  0.19251645  0.72920340  0.88107301     0.43600
H1268       H  0.32445910  0.70904968  0.78083000     0.43500
C1269       C  0.23273417  0.77480835  0.69733499    -0.05500
C1270       C  0.25187068  0.75797508  0.65893243    -0.33000
C1271       C  0.26836203  0.77328823  0.61509018     0.36300
C1272       C  0.26591514  0.80651911  0.60736012    -0.05900
C1273       C  0.24448427  0.82295848  0.64061665    -0.32900
C1274       C  0.22729747  0.80748821  0.68374027     0.36200
H1275       H  0.25484571  0.73258107  0.66424147     0.16600
O1276       O  0.28731455  0.75534854  0.58094517    -0.60400
H1277       H  0.24049631  0.84796616  0.63249844     0.16600
O1278       O  0.20377134  0.82396359  0.70831971    -0.60500
H1279       H  0.21228536  0.84328303  0.72611583     0.43600
H1280       H  0.27492866  0.74720046  0.54938978     0.43500
C1281       C  0.21592263  0.55543377  0.62231348    -0.05500
C1282       C  0.20763792  0.55822718  0.68091429    -0.33000
C1283       C  0.22406511  0.54278382  0.72342397     0.36300
C1284       C  0.24683195  0.52096661  0.70690362    -0.05900
C1285       C  0.25787357  0.52333210  0.64895021    -0.32900
C1286       C  0.24238780  0.53965053  0.60699121     0.36200
H1287       H  0.18846593  0.57244724  0.69375726     0.16600
O1288       O  0.21607783  0.54736943  0.78031729    -0.60400
H1289       H  0.27819335  0.51164362  0.63464878     0.16600
O1290       O  0.25280271  0.53902660  0.55067084    -0.60500
H1291       H  0.24624993  0.51827293  0.53513260     0.43600
H1292       H  0.22576673  0.56760498  0.79121604     0.43500
C1293       C  0.21659733  0.55564503  0.37114501    -0.05500
C1294       C  0.23060784  0.52752994  0.38717699    -0.33000
C1295       C  0.24842718  0.51009217  0.34816749     0.36300
C1296       C  0.25336200  0.52096889  0.29005786    -0.05900
C1297       C  0.23619399  0.54754737  0.27304488    -0.32900
C1298       C  0.21892104  0.56536111  0.31313357     0.36200
H1299       H  0.22763050  0.51864720  0.43092083     0.16600
O1300       O  0.25702066  0.97983357  0.36788717    -0.60400
H1301       H  0.23661876  0.55501821  0.22826676     0.16600
O1302       O  0.20381176  0.59165028  0.29473968    -0.60500
H1303       H  0.18407032  0.58361386  0.28347978     0.43600
H1304       H  0.26859783  0.98364629  0.40310715     0.43500
C1305       C  0.03137948  0.54180998  0.33046499    -0.05500
C1306       C  0.06107522  0.53805551  0.31158600    -0.33000
C1307       C  0.08429663  0.55203308  0.34177032     0.36300
C1308       C  0.07793613  0.57087300  0.39102499    -0.05900
C1309       C  0.04807156  0.57522313  0.40903302    -0.32900
C1310       C  0.02495865  0.56062749  0.37949122     0.36200
H1311       H  0.06630245  0.52505925  0.27237917     0.16600
O1312       O  0.11308914  0.54724916  0.32255637    -0.60400
H1313       H  0.04265569  0.58914995  0.44730318     0.16600
O1314       O  0.99614810  0.56473597  0.39907890    -0.60500
H1315       H  0.99154212  0.54562593  0.42281496     0.43600
H1316       H  0.11709790  0.56435870  0.29389994     0.43500
C1317       C  0.20122514  0.72733652  0.28351900    -0.05500
C1318       C  0.17061797  0.72999531  0.29967121    -0.33000
C1319       C  0.15742379  0.70999777  0.34222174     0.36300
C1320       C  0.17469136  0.68693295  0.36968073    -0.05900
C1321       C  0.20459348  0.68357005  0.35268785    -0.32900
C1322       C  0.21798335  0.70362130  0.31202814     0.36200
H1323       H  0.15694564  0.74852413  0.28203677     0.16600
O1324       O  0.12813514  0.71422467  0.35841876    -0.60400
H1325       H  0.21833661  0.66577269  0.37288063     0.16600
O1326       O  0.24782239  0.69960785  0.30006267    -0.60500
H1327       H  0.25802829  0.70605216  0.33567346     0.43600
H1328       H  0.12798032  0.73243797  0.38566998     0.43500
C1329       C  0.17464618  0.68661125  0.63328200    -0.05500
C1330       C  0.16468027  0.71831536  0.63465763    -0.33000
C1331       C  0.17541104  0.74022459  0.67556339     0.36300
C1332       C  0.19701489  0.73085381  0.71598784    -0.05900
C1333       C  0.20457642  0.69805674  0.71655976    -0.32900
C1334       C  0.19359502  0.67642421  0.67688315     0.36200
H1335       H  0.14988204  0.72671918  0.60183992     0.16600
O1336       O  0.16689995  0.77144926  0.67170956    -0.60400
H1337       H  0.22112783  0.68846818  0.74442055     0.16600
O1338       O  0.20251138  0.64522451  0.68024346    -0.60500
H1339       H  0.22315796  0.64475503  0.66394500     0.43600
H1340       H  0.14560909  0.77189120  0.68407671     0.43500
C1341       C  0.20871861  0.95209858  0.13244002    -0.05500
C1342       C  0.21254055  0.94133259  0.18891682    -0.33000
C1343       C  0.23082921  0.95798459  0.22688341     0.36300
C1344       C  0.24794058  0.98462954  0.20717094    -0.05900
C1345       C  0.24104179  0.99679546  0.15206530    -0.32900
C1346       C  0.22271882  0.98046218  0.11466449     0.36200
H1347       H  0.20090479  0.92022846  0.20409817     0.16600
O1348       O  0.23252259  0.94710419  0.28244318    -0.60400
H1349       H  0.25013825  0.01908268  0.13647845     0.16600
O1350       O  0.21925563  0.99224085  0.05994756    -0.60500
H1351       H  0.23526404  0.98213739  0.03594533     0.43600
H1352       H  0.21325369  0.95290520  0.30153564     0.43500
C1353       C  0.20478228  0.94722920  0.87897851    -0.05500
C1354       C  0.19062091  0.96159120  0.83254733    -0.33000
C1355       C  0.20716599  0.97497845  0.78617323     0.36300
C1356       C  0.23884748  0.97481789  0.78712098    -0.05900
C1357       C  0.25215808  0.95478786  0.82801635    -0.32900
C1358       C  0.23576579  0.94213812  0.87448548     0.36200
H1359       H  0.16656159  0.96293980  0.83248937     0.16600
O1360       O  0.19218322  0.98592989  0.73920839    -0.60400
H1361       H  0.27614839  0.95230805  0.82808274     0.16600
O1362       O  0.25086817  0.92752948  0.91780166    -0.60500
H1363       H  0.25323639  0.90509802  0.90523651     0.43600
H1364       H  0.17555843  0.99937874  0.75427911     0.43500
C1365       C  0.02672047  0.96556251  0.19231113    -0.05500
C1366       C  0.05546400  0.96208926  0.21356156    -0.33000
C1367       C  0.07704194  0.94419224  0.18345091     0.36300
C1368       C  0.06998000  0.92887191  0.13153700    -0.05900
C1369       C  0.04044466  0.92945393  0.11348433    -0.32900
C1370       C  0.01886446  0.94775209  0.14330899     0.36200
H1371       H  0.06180793  0.97433097  0.25232470     0.16600
O1372       O  0.10538867  0.94302241  0.20372419    -0.60400
H1373       H  0.03444536  0.91734842  0.07415510     0.16600
O1374       O  0.99012340  0.94766426  0.12485784    -0.60500
H1375       H  0.99075518  0.95869967  0.08696501     0.43600
H1376       H  0.10500515  0.92582301  0.23305806     0.43500
C1377       C  0.20064483  0.77910376  0.79050721    -0.05500
C1378       C  0.16997149  0.77752282  0.80594679    -0.33000
C1379       C  0.15740557  0.79749637  0.84946521     0.36300
C1380       C  0.17544288  0.81948917  0.87847633    -0.05900
C1381       C  0.20572379  0.82097763  0.86284465    -0.32900
C1382       C  0.21823571  0.80151754  0.82031148     0.36200
H1383       H  0.15584488  0.76007720  0.78617938     0.16600
O1384       O  0.12772710  0.79485548  0.86375690    -0.60400
H1385       H  0.22047302  0.83718269  0.88450077     0.16600
O1386       O  0.24833323  0.80393236  0.80917983    -0.60500
H1387       H  0.25162734  0.82527658  0.79191105     0.43600
H1388       H  0.11793260  0.81209729  0.84207417     0.43500
C1389       C  0.16349566  0.81573619  0.13725527    -0.05500
C1390       C  0.18418151  0.82853104  0.17457837    -0.33000
C1391       C  0.20093873  0.80934032  0.21079681     0.36300
C1392       C  0.19655117  0.77558317  0.21220794    -0.05900
C1393       C  0.17409200  0.76333175  0.17649605    -0.32900
C1394       C  0.15791273  0.78294360  0.13927284     0.36200
H1395       H  0.18954183  0.85365005  0.17172446     0.16600
O1396       O  0.22426022  0.82385990  0.23712481    -0.60400
H1397       H  0.17035153  0.73790219  0.17484094     0.16600
O1398       O  0.13822548  0.76951485  0.10226586    -0.60500
H1399       H  0.15060766  0.76134546  0.06936322     0.43600
H1400       H  0.21516481  0.83896646  0.26548062     0.43500
C1401       C  0.03288311  0.54368618  0.68284731    -0.05500
C1402       C  0.06268764  0.54146036  0.69872332    -0.33000
C1403       C  0.08476283  0.55952183  0.67011187     0.36300
C1404       C  0.07711643  0.58069796  0.62580276    -0.05900
C1405       C  0.04704253  0.58495635  0.61331881    -0.32900
C1406       C  0.02495560  0.56644678  0.64123717     0.36200
H1407       H  0.06917097  0.52408771  0.73058638     0.16600
O1408       O  0.11403458  0.55446546  0.68248103    -0.60400
H1409       H  0.04088634  0.60082086  0.57873675     0.16600
O1410       O  0.99576216  0.57035860  0.62703480    -0.60500
H1411       H  0.99406873  0.56075254  0.58812248     0.43600
H1412       H  0.11866971  0.57057695  0.71219735     0.43500
C1413       C  0.03473243  0.96028272  0.81309610    -0.05500
C1414       C  0.05409703  0.93581106  0.79403023    -0.33000
C1415       C  0.07257343  0.92003814  0.83288035     0.36300
C1416       C  0.07163989  0.92857965  0.89168938    -0.05900
C1417       C  0.05171955  0.95248994  0.91052926    -0.32900
C1418       C  0.03356114  0.96832651  0.87196512     0.36200
H1419       H  0.05515462  0.92922813  0.74875566     0.16600
O1420       O  0.09254020  0.89779427  0.81243243    -0.60400
H1421       H  0.05035375  0.95922707  0.95574001     0.16600
O1422       O  0.01482630  0.49193539  0.89382344    -0.60500
H1423       H  0.02721175  0.51091698  0.90139471     0.43600
H1424       H  0.08138849  0.87745258  0.81241815     0.43500
C1425       C  0.94497739  0.54979381  0.19687350    -0.05500
C1426       C  0.91383854  0.54909730  0.20705858    -0.33000
C1427       C  0.89454789  0.56386234  0.16936091     0.36300
C1428       C  0.90594522  0.58128749  0.12227879    -0.05900
C1429       C  0.93671909  0.58552358  0.11548280    -0.32900
C1430       C  0.95622364  0.57025361  0.15284823     0.36200
H1431       H  0.90357762  0.53673672  0.24305579     0.16600
O1432       O  0.86439137  0.56034162  0.17786957    -0.60400
H1433       H  0.94569255  0.59911057  0.07924128     0.16600
O1434       O  0.98629224  0.57385069  0.14367641    -0.60500
H1435       H  0.99134889  0.59400519  0.16337672     0.43600
H1436       H  0.85964786  0.53919804  0.16148576     0.43500
C1437       C  0.91336326  0.56531402  0.89202265    -0.05500
C1438       C  0.93280988  0.58233885  0.85484649    -0.33000
C1439       C  0.95546238  0.56634944  0.82319291     0.36300
C1440       C  0.95888290  0.53322656  0.82940433    -0.05900
C1441       C  0.94127095  0.51701291  0.87056752    -0.32900
C1442       C  0.91876532  0.53272119  0.90174714     0.36200
H1443       H  0.92939338  0.60754342  0.84795305     0.16600
O1444       O  0.97215724  0.58266194  0.78254800    -0.60400
H1445       H  0.94367004  0.49150942  0.87564609     0.16600
O1446       O  0.90142616  0.51565549  0.94035548    -0.60500
H1447       H  0.91081942  0.51863939  0.97824645     0.43600
H1448       H  0.99142476  0.58678600  0.80095064     0.43500
C1449       C  0.73711528  0.51575717  0.79047355    -0.05500
C1450       C  0.73909525  0.54932114  0.78929581    -0.33000
C1451       C  0.75568584  0.56612188  0.83009352     0.36300
C1452       C  0.77254028  0.54961322  0.87113547    -0.05900
C1453       C  0.77300245  0.51632445  0.86868900    -0.32900
C1454       C  0.75590595  0.49955979  0.82938409     0.36200
H1455       H  0.72768139  0.56306483  0.75748282     0.16600
O1456       O  0.75522846  0.59873662  0.82913154    -0.60400
H1457       H  0.78599354  0.50282894  0.89885951     0.16600
O1458       O  0.75350030  0.96865854  0.83294204    -0.60500
H1459       H  0.77264115  0.96139853  0.81513838     0.43600
H1460       H  0.73662687  0.60482433  0.85039988     0.43500
C1461       C  0.73553171  0.51209550  0.20542496    -0.05500
C1462       C  0.73698038  0.50217340  0.14673293    -0.33000
C1463       C  0.75520124  0.51738089  0.10561757     0.36300
C1464       C  0.77405252  0.54191973  0.12228462    -0.05900
C1465       C  0.77554127  0.54999775  0.18069694    -0.32900
C1466       C  0.75701234  0.53498698  0.22225089     0.36200
H1467       H  0.72425673  0.98378201  0.13025469     0.16600
O1468       O  0.75431966  0.50810157  0.04883266    -0.60400
H1469       H  0.79067590  0.56847558  0.19405180     0.16600
O1470       O  0.75924656  0.54388768  0.27897932    -0.60500
H1471       H  0.77796569  0.53411225  0.29207307     0.43600
H1472       H  0.76962344  0.49121261  0.04443680     0.43500
C1473       C  0.95853209  0.95891625  0.33314315    -0.05500
C1474       C  0.95876654  0.95894160  0.39344622    -0.33000
C1475       C  0.93835637  0.94021709  0.42513368     0.36300
C1476       C  0.91761466  0.92105932  0.39627810    -0.05900
C1477       C  0.91991969  0.91813497  0.33614609    -0.32900
C1478       C  0.94032889  0.93688291  0.30450015     0.36200
H1479       H  0.97269488  0.97564709  0.41591412     0.16600
O1480       O  0.93758562  0.94212946  0.48436074    -0.60400
H1481       H  0.90412816  0.90364198  0.31341469     0.16600
O1482       O  0.94000157  0.93617753  0.24527139    -0.60500
H1483       H  0.95718629  0.92268355  0.23332224     0.43600
H1484       H  0.92775943  0.96269350  0.49372243     0.43500
C1485       C  0.90318621  0.93088604  0.61139431    -0.05500
C1486       C  0.92839855  0.91317187  0.62544390    -0.33000
C1487       C  0.95249233  0.92742343  0.65241611     0.36300
C1488       C  0.95132201  0.96012530  0.66698142    -0.05900
C1489       C  0.92703671  0.97813217  0.64795983    -0.32900
C1490       C  0.90303631  0.96388926  0.62161820     0.36200
H1491       H  0.92983434  0.88818145  0.61423261     0.16600
O1492       O  0.97777436  0.90974548  0.65891932    -0.60400
H1493       H  0.92619253  0.00358028  0.65538671     0.16600
O1494       O  0.87991355  0.98276048  0.60484082    -0.60500
H1495       H  0.88542236  0.98975872  0.56503930     0.43600
H1496       H  0.97217469  0.89242205  0.68622606     0.43500
C1497       C  0.76830573  0.94288287  0.62546951    -0.05500
C1498       C  0.76864168  0.97624427  0.62748775    -0.33000
C1499       C  0.75293577  0.99321670  0.67053194     0.36300
C1500       C  0.73507929  0.97721987  0.71326314    -0.05900
C1501       C  0.73793862  0.94360975  0.71508041    -0.32900
C1502       C  0.75382109  0.92660344  0.67152655     0.36200
H1503       H  0.78075303  0.98970446  0.59459107     0.16600
O1504       O  0.75821106  0.52393461  0.67351111    -0.60400
H1505       H  0.72846407  0.92992688  0.75036073     0.16600
O1506       O  0.75487129  0.89404947  0.67456220    -0.60500
H1507       H  0.77114094  0.88922261  0.70125637     0.43600
H1508       H  0.74873961  0.53134008  0.63772720     0.43500
C1509       C  0.77460285  0.95053843  0.37115496    -0.05500
C1510       C  0.77440955  0.94096849  0.31329553    -0.33000
C1511       C  0.75531901  0.95568757  0.27409559     0.36300
C1512       C  0.73519580  0.98003638  0.29303910    -0.05900
C1513       C  0.73779611  0.99060742  0.35104467    -0.32900
C1514       C  0.75664894  0.97587579  0.38951800     0.36200
H1515       H  0.78880341  0.92175783  0.29857275     0.16600
O1516       O  0.75702667  0.94675313  0.21699108    -0.60400
H1517       H  0.72607700  0.01116960  0.36767797     0.16600
O1518       O  0.75724572  0.98644571  0.44559964    -0.60500
H1519       H  0.77428586  0.00138784  0.44660914     0.43600
H1520       H  0.75275435  0.92360568  0.21620119     0.43500
C1521       C  0.72009737  0.68625425  0.62900509    -0.05500
C1522       C  0.71580079  0.68112335  0.68861572    -0.33000
C1523       C  0.73116604  0.69980337  0.72895538     0.36300
C1524       C  0.75086940  0.72421801  0.70935033    -0.05900
C1525       C  0.75840367  0.72432527  0.64927281    -0.32900
C1526       C  0.74234622  0.70708838  0.60973455     0.36200
H1527       H  0.69953028  0.66385466  0.70389961     0.16600
O1528       O  0.72662523  0.69442568  0.78709677    -0.60400
H1529       H  0.77636231  0.73849280  0.63111492     0.16600
O1530       O  0.74797277  0.71163907  0.55171500    -0.60500
H1531       H  0.76317120  0.69550171  0.54064687     0.43600
H1532       H  0.70493527  0.69645302  0.79501265     0.43500
C1533       C  0.74213861  0.77012284  0.78622762    -0.05500
C1534       C  0.75443691  0.79296509  0.82346769    -0.33000
C1535       C  0.73751837  0.80749330  0.86716703     0.36300
C1536       C  0.70665792  0.80177443  0.87233566    -0.05900
C1537       C  0.69325682  0.78374356  0.82893145    -0.32900
C1538       C  0.71059014  0.76843881  0.78517007     0.36200
H1539       H  0.77827399  0.79676137  0.82299716     0.16600
O1540       O  0.75195417  0.82616809  0.90608241    -0.60400
H1541       H  0.66927303  0.78136502  0.82897156     0.16600
O1542       O  0.69655462  0.75467602  0.73951905    -0.60500
H1543       H  0.68036485  0.74120273  0.75614970     0.43600
H1544       H  0.75926927  0.81121045  0.93565936     0.43500
C1545       C  0.80662574  0.81427296  0.62434601    -0.05500
C1546       C  0.82519068  0.79960790  0.66463531    -0.33000
C1547       C  0.81313144  0.78022073  0.70959788     0.36300
C1548       C  0.78203090  0.77443518  0.71336798    -0.05900
C1549       C  0.76392604  0.79270811  0.67694242    -0.32900
C1550       C  0.77564000  0.81157405  0.63291479     0.36200
H1551       H  0.84906815  0.80268561  0.66071056     0.16600
O1552       O  0.83199835  0.76755307  0.74884531    -0.60400
H1553       H  0.73995072  0.79027849  0.67949376     0.16600
O1554       O  0.75618764  0.82723321  0.59814484    -0.60500
H1555       H  0.74923189  0.81097583  0.57052874     0.43600
H1556       H  0.83193499  0.78292107  0.78133972     0.43500
C1557       C  0.78365131  0.72905740  0.79532329    -0.05500
C1558       C  0.77494728  0.72846574  0.85482690    -0.33000
C1559       C  0.78875646  0.70975554  0.89518998     0.36300
C1560       C  0.81055256  0.68762367  0.87788880    -0.05900
C1561       C  0.81961017  0.68677387  0.81915241    -0.32900
C1562       C  0.80645913  0.70721248  0.77804884     0.36200
H1563       H  0.75582904  0.74098497  0.87216542     0.16600
O1564       O  0.77909229  0.71210651  0.95188815    -0.60400
H1565       H  0.83581856  0.66926838  0.80453617     0.19800
O1566       O  0.81425907  0.70384483  0.72058343    -0.60500
H1567       H  0.83601145  0.70760593  0.71752827     0.43600
H1568       H  0.79294767  0.72725460  0.96993969     0.43500
C1569       C  0.74792288  0.76644422  0.20802650    -0.05500
C1570       C  0.74510163  0.75549395  0.15040438    -0.33000
C1571       C  0.72880514  0.77214236  0.10990005     0.36300
C1572       C  0.71289802  0.79952136  0.12633688    -0.05900
C1573       C  0.71251253  0.80883392  0.18441484    -0.32900
C1574       C  0.72922277  0.79229798  0.22528845     0.36200
H1575       H  0.75510452  0.73359301  0.13535288     0.16600
O1576       O  0.72943214  0.76193329  0.05351015    -0.60400
H1577       H  0.69881671  0.82868024  0.19849886     0.16600
O1578       O  0.72704627  0.80150825  0.28209528    -0.60500
H1579       H  0.73438716  0.82373772  0.28332400     0.43600
H1580       H  0.71505004  0.74409045  0.05238988     0.43500
C1581       C  0.74716880  0.73497929  0.29895587    -0.05500
C1582       C  0.72570946  0.71241629  0.28191046    -0.33000
C1583       C  0.70728395  0.69655804  0.32262488     0.36300
C1584       C  0.71028885  0.70241519  0.38186097    -0.05900
C1585       C  0.72870480  0.72704313  0.39899844    -0.32900
C1586       C  0.74540805  0.74465897  0.35835665     0.36200
H1587       H  0.72401525  0.70618440  0.23671396     0.16600
O1588       O  0.68711585  0.67468428  0.30411088    -0.60400
H1589       H  0.72913662  0.73370985  0.44420836     0.16600
O1590       O  0.75805804  0.77223933  0.37748361    -0.60500
H1591       H  0.74132643  0.78694089  0.38666530     0.43600
H1592       H  0.66785498  0.68616579  0.30370623     0.43500
C1593       C  0.79202243  0.77227376  0.27908903    -0.05500
C1594       C  0.81053022  0.76028615  0.32265182    -0.33000
C1595       C  0.82339226  0.78091398  0.36281478     0.36300
C1596       C  0.81854514  0.81393486  0.35848401    -0.05900
C1597       C  0.80645970  0.82577304  0.30756751    -0.32900
C1598       C  0.79476682  0.80518108  0.26643443     0.36200
H1599       H  0.81147783  0.73491197  0.33054149     0.16600
O1600       O  0.83692923  0.76829323  0.40992887    -0.60400
H1601       H  0.80506947  0.85121554  0.30057784     0.16600
O1602       O  0.78572581  0.81780234  0.21525758    -0.60500
H1603       H  0.80387576  0.81850782  0.18997090     0.43600
H1604       H  0.85850648  0.76880832  0.39992482     0.43500
C1605       C  0.78856738  0.72399258  0.21841974    -0.05500
C1606       C  0.80706839  0.73469332  0.17172952    -0.33000
C1607       C  0.81773325  0.71379210  0.12864620     0.36300
C1608       C  0.81157424  0.68107189  0.13289659    -0.05900
C1609       C  0.79837919  0.66965284  0.18462853    -0.32900
C1610       C  0.78775131  0.69061513  0.22812281     0.36200
H1611       H  0.81010397  0.75995056  0.16466530     0.16600
O1612       O  0.83132833  0.72613628  0.07985853    -0.60400
H1613       H  0.79587798  0.64424877  0.19109413     0.16600
O1614       O  0.77848919  0.67827217  0.28055445    -0.60500
H1615       H  0.76374163  0.66143821  0.27219895     0.43600
H1616       H  0.85271054  0.72745603  0.08886809     0.43500
loop_ 
_geom_bond_atom_site_label_1 
_geom_bond_atom_site_label_2 
_geom_bond_distance 
_geom_bond_site_symmetry_2 
_ccdc_geom_bond_type 
C1          C761   1.571       .  S
C1          C773   1.572       .  S
C1          C785   1.559       .  S
C1          C797   1.569       .  S
C2          C716   1.571       .  S
C2          C725   1.567       .  S
C2          C740   1.560       .  S
C2          C749   1.576       .  S
O3          Cr21   2.001       .  S
O3           C11   1.262       .  A
O4          Cr21   1.974       .  S
O4            C5   1.264       .  A
C5            O6   1.273       .  A
C5          C788   1.483       .  S
O6          Cr22   2.031       .  S
O7          Cr22   1.991       .  S
O7            C8   1.264       .  A
C8            O9   1.262       .  A
C8          C668   1.467       .  S
O9          Cr23   1.985       .  S
O10         Cr23   1.990       .  S
O10          C11   1.260       .  A
C11         C701   1.469       .  S
O12         Cr21   2.003       .  S
O12          C20   1.266       .  A
O13         Cr21   1.984       .  S
O13          C14   1.259       .  A
C14          O15   1.258       .  A
C14         C737   1.483       .  S
O15         Cr22   2.002       .  S
O16         Cr22   1.996       .  S
O16          C17   1.265       .  A
C17          O18   1.259       .  A
C17         C677   1.469       .  S
O18         Cr23   1.965       .  S
O19         Cr23   2.002       .  S
O19          C20   1.267       .  A
C20         C689   1.495       .  S
Cr21         O24   1.761       .  S
Cr22         O24   1.778       .  S
Cr23         O24   1.759       .  S
O25         Cr43   2.004   1_554  S
O25          C33   1.260       .  A
O26         Cr43   1.983   1_554  S
O26          C27   1.263       .  A
C27          O28   1.273       .  A
C27         C800   1.491       .  S
O28         Cr44   2.031   1_554  S
O29         Cr44   1.983   1_554  S
O29          C30   1.262       .  A
C30          O31   1.264       .  A
C30         C620   1.463       .  S
O31         Cr45   1.995   1_554  S
O32         Cr45   1.986   1_554  S
O32          C33   1.255       .  A
C33         C656   1.471       .  S
O34         Cr43   1.988       .  S
O34          C42   1.263       .  A
O35         Cr43   1.987       .  S
O35          C36   1.264       .  A
C36          O37   1.262       .  A
C36         C752   1.487       .  S
O37         Cr44   2.007       .  S
O38         Cr44   2.014       .  S
O38          C39   1.265       .  A
C39          O40   1.259       .  A
C39         C629   1.471       .  S
O40         Cr45   1.965       .  S
O41         Cr45   2.024       .  S
O41          C42   1.273       .  A
C42         C644   1.500       .  S
Cr43         O46   1.766       .  S
Cr44         O46   1.782       .  S
Cr45         O46   1.763       .  S
C47         C680   1.531       .  S
C47          C48   1.539       .  S
C47          C53   1.531       .  S
C47          C51   1.540       .  S
C48          H55   1.086       .  S
C48         C857   1.370   1_655  D
C49          C50   1.541       .  S
C49         C856   1.370   1_455  D
C49         C593   1.488       .  S
C50          C54   1.535   1_455  S
C50         C860   1.549   1_545  S
C50          H56   1.110       .  S
C51          H57   1.076       .  S
C51          C52   1.363   1_655  D
C52         C858   1.548       .  S
C52         C605   1.485       .  S
C53         H866   1.088       .  S
C53         C862   1.356       .  D
C54         C861   1.354   1_545  D
C54         C632   1.470       .  S
H58         C861   1.088       .  S
O59         Cr77   1.991       .  S
O59          C67   1.260       .  A
O60         Cr77   1.981       .  S
O60          C61   1.259       .  A
C61          O62   1.266       .  A
C61         C581   1.481       .  S
O62         Cr78   2.014       .  S
O63         Cr78   2.030       .  S
O63          C64   1.275       .  A
C64          O65   1.265       .  A
C64         C560   1.475       .  S
O65         Cr79   1.965       .  S
O66         Cr79   2.000       .  S
O66          C67   1.261       .  A
C67         C533   1.479       .  S
O68         Cr77   1.994   1_556  S
O68          C76   1.264       .  A
O69         Cr77   1.951   1_556  S
O69          C70   1.258       .  A
C70          O71   1.272       .  A
C70         C572   1.494       .  S
O71         Cr78   2.039   1_556  S
O72         Cr78   2.015   1_556  S
O72          C73   1.266       .  A
C73          O74   1.254       .  A
C73         C608   1.480       .  S
O74         Cr79   1.972   1_556  S
O75         Cr79   1.990   1_556  S
O75          C76   1.264       .  A
C76         C545   1.484       .  S
Cr77         O80   1.759       .  S
Cr78         O80   1.778       .  S
Cr79         O80   1.765       .  S
O81         Cr99   1.994       .  S
O81          C89   1.263       .  A
O82         Cr99   1.974       .  S
O82          C83   1.256       .  A
C83          O84   1.261       .  A
C83         C512   1.479       .  S
O84        Cr100   2.010       .  S
O85        Cr100   2.018       .  S
O85          C86   1.271       .  A
C86          O87   1.263       .  A
C86         C500   1.482       .  S
O87        Cr101   1.977       .  S
O88        Cr101   2.010       .  S
O88          C89   1.268       .  A
C89         C485   1.482       .  S
O90         Cr99   1.995       .  S
O90          C98   1.260       .  A
O91         Cr99   1.955       .  S
O91          C92   1.261       .  A
C92          O93   1.275       .  A
C92         C521   1.491       .  S
O93        Cr100   2.042       .  S
O94        Cr100   1.996       .  S
O94          C95   1.263       .  A
C95          O96   1.260       .  A
C95         C596   1.470       .  S
O96        Cr101   1.985       .  S
O97        Cr101   1.994       .  S
O97          C98   1.260       .  A
C98         C473   1.473       .  S
Cr99        O102   1.765       .  S
Cr100       O102   1.778       .  S
Cr101       O102   1.762       .  S
C103        C449   1.570       .  S
C103        C461   1.566       .  S
C103        C524   1.570       .  S
C103        C569   1.557       .  S
C104        C425   1.569       .  S
C104        C440   1.562       .  S
C104        C509   1.565       .  S
C104        C584   1.575       .  S
C105        C617   1.536       .  S
C105        C106   1.538       .  S
C105        C111   1.545       .  S
C105        C109   1.532       .  S
C106        H113   1.080       .  S
C106        C915   1.358   1_545  D
C107        C108   1.533   1_655  S
C107        C914   1.357       .  D
C107        C665   1.472       .  S
C108        C112   1.537       .  S
C108        C918   1.546       .  S
C108        H114   1.110       .  S
C109        H115   1.086       .  S
C109        C110   1.365   1_655  D
C110        C916   1.548   1_545  S
C110        C497   1.483       .  S
C111        H116   1.085       .  S
C111        C920   1.372   1_645  D
C112        C919   1.373   1_455  D
C112        C557   1.489       .  S
O117       Cr135   1.990       .  S
O117        C125   1.267       .  A
O118       Cr135   1.990       .  S
O118        C119   1.261       .  A
C119        O120   1.260       .  A
C119        C401   1.496       .  S
O120       Cr136   2.015       .  S
O121       Cr136   1.999       .  S
O121        C122   1.264       .  A
C122        O123   1.259       .  A
C122        C389   1.464       .  S
O123       Cr137   1.960       .  S
O124       Cr137   2.004       .  S
O124        C125   1.265       .  A
C125        C464   1.490       .  S
O126       Cr135   1.990       .  S
O126        C134   1.261       .  A
O127       Cr135   1.964       .  S
O127        C128   1.261       .  A
C128        O129   1.274       .  A
C128        C413   1.487       .  S
O129       Cr136   2.037       .  S
O130       Cr136   2.000       .  S
O130        C131   1.265       .  A
C131        O132   1.262       .  A
C131        C377   1.474       .  S
O132       Cr137   1.988       .  S
O133       Cr137   1.996       .  S
O133        C134   1.264       .  A
C134        C428   1.489       .  S
Cr135       O138   1.761       .  S
Cr136       O138   1.785       .  S
Cr137       O138   1.766       .  S
O139       Cr157   1.995       .  S
O139        C147   1.267       .  A
O140       Cr157   1.964       .  S
O140        C141   1.257       .  A
C141        O142   1.269       .  A
C141        C353   1.475       .  S
O142       Cr158   2.029       .  S
O143       Cr158   2.003       .  S
O143        C144   1.265       .  A
C144        O145   1.258       .  A
C144        C332   1.477       .  S
O145       Cr159   1.972       .  S
O146       Cr159   1.990       .  S
O146        C147   1.265       .  A
C147        C452   1.486       .  S
O148       Cr157   1.987   1_554  S
O148        C156   1.261       .  A
O149       Cr157   2.004   1_554  S
O149        C150   1.263       .  A
C150        O151   1.259       .  A
C150        C365   1.477       .  S
O151       Cr158   1.991   1_554  S
O152       Cr158   2.005   1_554  S
O152        C153   1.267       .  A
C153        O154   1.264       .  A
C153        C341   1.472       .  S
O154       Cr159   1.974   1_554  S
O155       Cr159   1.994   1_554  S
O155        C156   1.259       .  A
C156        C437   1.486       .  S
Cr157       O160   1.764       .  S
Cr158       O160   1.786       .  S
Cr159       O160   1.767       .  S
C161        C404   1.574       .  S
C161        C548   1.560       .  S
C161       C1164   1.578       .  S
C161       C1284   1.564       .  S
C162        C368   1.570       .  S
C162        C488   1.572       .  S
C162       C1224   1.556   1_545  S
C162       C1344   1.572   1_545  S
C163        C392   1.521       .  S
C163        C164   1.532       .  S
C163        C169   1.538       .  S
C163        C167   1.540       .  S
C164        H171   1.087       .  S
C164        C165   1.357       .  D
C165        C166   1.534       .  S
C165        C329   1.471       .  S
C166        C170   1.531       .  S
C166        C168   1.539       .  S
C166        H172   1.111       .  S
C167        H173   1.081       .  S
C167        C168   1.362       .  D
C168        C317   1.471       .  S
C169        H174   1.086       .  S
C169        C170   1.366       .  D
C170        C305   1.469       .  S
C175        C293   1.576       .  S
C175        C692   1.579       .  S
C175       C1089   1.585       .  S
C175       C1449   1.569       .  S
O176       Cr194   1.987       .  S
O176        C184   1.257       .  A
O177       Cr194   2.015       .  S
O177        C178   1.267       .  A
C178        O179   1.262       .  A
C178        C284   1.491       .  S
O179       Cr195   2.006       .  S
O180       Cr195   2.016       .  S
O180        C181   1.270       .  A
C181        O182   1.260       .  A
C181        C308   1.482       .  S
O182       Cr196   1.966       .  S
O183       Cr196   2.013       .  S
O183        C184   1.266       .  A
C184        C713   1.473       .  S
O185       Cr194   2.026       .  S
O185        C193   1.270       .  A
O186       Cr194   1.967       .  S
O186        C187   1.259       .  A
C187        O188   1.274       .  A
C187        C269   1.492       .  S
O188       Cr195   2.044       .  S
O189       Cr195   2.009       .  S
O189        C190   1.268       .  A
C190        O191   1.264       .  A
C190        C257   1.494       .  S
O191       Cr196   1.998       .  S
O192       Cr196   1.978       .  S
O192        C193   1.258       .  A
C193        C776   1.474       .  S
Cr194       O197   1.764       .  S
Cr195       O197   1.770       .  S
Cr196       O197   1.764       .  S
C198        C245   1.564       .  S
C198        C704   1.572       .  S
C198       C1080   1.564       .  S
C198       C1461   1.570       .  S
O199       Cr217   1.997   1_556  S
O199        C207   1.265       .  A
O200       Cr217   1.979   1_556  S
O200        C201   1.259       .  A
C201        O202   1.270       .  A
C201        C296   1.479       .  S
O202       Cr218   2.027   1_556  S
O203       Cr218   1.997   1_556  S
O203        C204   1.264       .  A
C204        O205   1.257       .  A
C204        C320   1.470       .  S
O205       Cr219   1.979   1_556  S
O206       Cr219   1.990   1_556  S
O206        C207   1.263       .  A
C207        C728   1.486       .  S
O208       Cr217   1.997       .  S
O208        C216   1.262       .  A
O209       Cr217   2.001       .  S
O209        C210   1.263       .  A
C210        O211   1.261       .  A
C210        C248   1.476       .  S
O211       Cr218   1.995       .  S
O212       Cr218   2.012       .  S
O212        C213   1.270       .  A
C213        O214   1.263       .  A
C213        C233   1.475       .  S
O214       Cr219   1.976       .  S
O215       Cr219   1.995       .  S
O215        C216   1.262       .  A
C216        C764   1.479       .  S
Cr217       O220   1.762       .  S
Cr218       O220   1.771       .  S
Cr219       O220   1.766       .  S
C221        C344   1.530       .  S
C221        C222   1.541       .  S
C221        C227   1.536       .  S
C221        C225   1.531       .  S
C222        H229   1.085       .  S
C222        C223   1.369       .  D
C223        C224   1.538       .  S
C223        C236   1.482       .  S
C224        C228   1.542       .  S
C224        C226   1.554       .  S
C224        H230   1.109       .  S
C225        H231   1.086       .  S
C225        C226   1.369       .  D
C226        C260   1.498       .  S
C227        H232   1.082       .  S
C227        C228   1.358       .  D
C228        C380   1.485       .  S
C233        C234   1.403       .  A
C233        C238   1.408       .  A
C234        C235   1.397       .  A
C234        H239   1.083       .  S
C235        C236   1.409       .  A
C235        O240   1.373       .  S
C236        C237   1.405       .  A
C237        C238   1.401       .  A
C237        H241   1.084       .  S
C238        O242   1.371       .  S
O240        H244   0.993       .  S
O242        H243   0.992       .  S
C245        C246   1.411       .  A
C245        C250   1.427       .  A
C246        C247   1.402       .  A
C246        H251   1.080       .  S
C247        C248   1.404       .  A
C247        O252   1.370       .  S
C248        C249   1.397       .  A
C249        C250   1.406       .  A
C249        H253   1.084       .  S
C250        O254   1.374       .  S
O252        H256   0.992       .  S
O254        H255   0.992       .  S
C257        C258   1.409       .  A
C257        C262   1.409       .  A
C258        C259   1.401       .  A
C258        H263   1.084       .  S
C259        C260   1.405       .  A
C259        O264   1.370       .  S
C260        C261   1.412       .  A
C261        C262   1.409       .  A
C261        H265   1.083       .  S
C262        O266   1.371       .  S
O264        H268   0.992       .  S
O266        H267   0.992       .  S
C269        C270   1.402       .  A
C269        C274   1.410       .  A
C270        C271   1.411       .  A
C270        H275   1.083       .  S
C271        C272   1.427       .  A
C271       O1084   1.373   1_545  S
C272       C1006   1.569   1_545  S
C272        C273   1.409       .  A
C273        C274   1.400       .  A
C273        H277   1.079       .  S
C274        O278   1.369       .  S
O276       C1079   1.373       .  S
O276        H280   0.992       .  S
O278        H279   0.992       .  S
C281        C983   1.584   1_545  S
C281        C282   1.422       .  A
C281        C286   1.423       .  A
C282        C283   1.400       .  A
C282        H287   1.081   1_545  S
C283        C284   1.400       .  A
C283        O288   1.372       .  S
C284        C285   1.407       .  A
C285        C286   1.417       .  A
C285        H289   1.083       .  S
C286        O290   1.369       .  S
O288        H292   0.992       .  S
O290        H291   0.992       .  S
C293        C294   1.414       .  A
C293        C298   1.435       .  A
C294        C295   1.410       .  A
C294        H299   1.083       .  S
C295        C296   1.408       .  A
C295        O300   1.372       .  S
C296        C297   1.391       .  A
C297        C298   1.402       .  A
C297        H301   1.084       .  S
C298        O302   1.374       .  S
O300        H304   0.992       .  S
O302        H303   0.993       .  S
C305        C306   1.398       .  A
C305        C310   1.403       .  A
C306        C307   1.397       .  A
C306        H311   1.084       .  S
C307        C308   1.414       .  A
C307        O312   1.372       .  S
C308        C309   1.409       .  A
C309        C310   1.399       .  A
C309        H313   1.084       .  S
C310        O314   1.372       .  S
O312        H316   0.992       .  S
O314        H315   0.992       .  S
C317        C318   1.395       .  A
C317        C322   1.410       .  A
C318        C319   1.394       .  A
C318        H323   1.083       .  S
C319        C320   1.413       .  A
C319        O324   1.372       .  S
C320        C321   1.400       .  A
C321        C322   1.401       .  A
C321        H325   1.084       .  S
C322        O326   1.372       .  S
O324        H328   0.992       .  S
O326        H327   0.992       .  S
C329        C330   1.392       .  A
C329        C334   1.412       .  A
C330        C331   1.394       .  A
C330        H335   1.083       .  S
C331        C332   1.417       .  A
C331        O336   1.372       .  S
C332        C333   1.401       .  A
C333        C334   1.405       .  A
C333        H337   1.083       .  S
C334        O338   1.372       .  S
O336        H340   0.991       .  S
O338        H339   0.992       .  S
C341        C342   1.404       .  A
C341        C346   1.403       .  A
C342        C343   1.399       .  A
C342        H347   1.083       .  S
C343        C344   1.413       .  A
C343        O348   1.372       .  S
C344        C345   1.413       .  A
C345        C346   1.395       .  A
C345        H349   1.078       .  S
C346        O350   1.373       .  S
O348        H352   0.991       .  S
O350        H351   0.992       .  S
C353        C354   1.387       .  A
C353        C358   1.405       .  A
C354        C355   1.391       .  A
C354        H359   1.086       .  S
C355        C356   1.437       .  A
C355        O360   1.374       .  S
C356        C969   1.576   1_545  S
C356        C357   1.420       .  A
C357        C358   1.415       .  A
C357        H361   1.082       .  S
C358        O362   1.371       .  S
O360        H364   0.993       .  S
O362        H363   0.992       .  S
C365        C366   1.395       .  A
C365        C370   1.405       .  A
C366        C367   1.404       .  A
C366        H371   1.084       .  S
C367        C368   1.428       .  A
C367       O1180   1.373   1_545  S
C368        C369   1.414       .  A
C369        C370   1.405       .  A
C369        H373   1.080       .  S
C370        O374   1.372       .  S
O372       C1175   1.373       .  S
O372        H376   0.992       .  S
O374        H375   0.991       .  S
C377        C378   1.399       .  A
C377        C382   1.412       .  A
C378        C379   1.403       .  A
C378        H383   1.084       .  S
C379        C380   1.417       .  A
C379        O384   1.372       .  S
C380        C381   1.397       .  A
C381        C382   1.400       .  A
C381        H385   1.080       .  S
C382        O386   1.373       .  S
O384        H388   0.992       .  S
O386        H387   0.992       .  S
C389        C390   1.398       .  A
C389        C394   1.404       .  A
C390        C391   1.389       .  A
C390        H395   1.084       .  S
C391        C392   1.414       .  A
C391        O396   1.373       .  S
C392        C393   1.412       .  A
C393        C394   1.399       .  A
C393        H397   1.076       .  S
C394        O398   1.372       .  S
O396        H400   0.992       .  S
O398        H399   0.992       .  S
C401        C402   1.397       .  A
C401        C406   1.414       .  A
C402        C403   1.387       .  A
C402        H407   1.084       .  S
C403        C404   1.425       .  A
C403        O408   1.371       .  S
C404        C405   1.418       .  A
C405        C406   1.420       .  A
C405        H409   1.079       .  S
C406        O410   1.371       .  S
O408        H412   0.992       .  S
O410        H411   0.992       .  S
C413        C414   1.403       .  A
C413        C418   1.410       .  A
C414        C415   1.410       .  A
C414        H419   1.083       .  S
C415        C416   1.424       .  A
C415        O420   1.373       .  S
C416        C970   1.561       .  S
C416        C417   1.410       .  A
C417        C418   1.397       .  A
C417        H421   1.080       .  S
C418        O422   1.372       .  S
O420        H424   0.992       .  S
O422        H423   0.992       .  S
C425        C426   1.413       .  A
C425        C430   1.432       .  A
C426        C427   1.392       .  A
C426        H431   1.083       .  S
C427        C428   1.411       .  A
C427        O432   1.372       .  S
C428        C429   1.400       .  A
C429        C430   1.411       .  A
C429        H433   1.084       .  S
C430        O434   1.373       .  S
O432        H436   0.992       .  S
O434        H435   0.992       .  S
C437        C438   1.407       .  A
C437        C442   1.404       .  A
C438        C439   1.403       .  A
C438        H443   1.083       .  S
C439        C440   1.419       .  A
C439        O444   1.374       .  S
C440        C441   1.418       .  A
C441        C442   1.397       .  A
C441        H445   1.080       .  S
C442        O446   1.371       .  S
O444        H448   0.991       .  S
O446        H447   0.992       .  S
C449        C450   1.419       .  A
C449        C454   1.422       .  A
C450        C451   1.406       .  A
C450        H455   1.078       .  S
C451        C452   1.407       .  A
C451        O456   1.371       .  S
C452        C453   1.402       .  A
C453        C454   1.392       .  A
C453        H457   1.084       .  S
C454        O458   1.373       .  S
O456        H460   0.992       .  S
O458        H459   0.992       .  S
C461        C462   1.411       .  A
C461        C466   1.429       .  A
C462        C463   1.399       .  A
C462        H467   1.083       .  S
C463        C464   1.413       .  A
C463        O468   1.372       .  S
C464        C465   1.400       .  A
C465        C466   1.404       .  A
C465        H469   1.084       .  S
C466        O470   1.374       .  S
O468        H472   0.992       .  S
O470        H471   0.993       .  S
C473        C474   1.402       .  A
C473        C478   1.402       .  A
C474        C475   1.407       .  A
C474        H479   1.084       .  S
C475        C476   1.418       .  A
C475        O480   1.369       .  S
C476        C969   1.562   1_545  S
C476        C477   1.418       .  A
C477        C478   1.392       .  A
C477        H481   1.082       .  S
C478        O482   1.373       .  S
O480        H484   0.992       .  S
O482        H483   0.992       .  S
C485        C486   1.395       .  A
C485        C490   1.405       .  A
C486        C487   1.398       .  A
C486        H491   1.084       .  S
C487        C488   1.432       .  A
C487       O1300   1.373   1_545  S
C488        C489   1.419       .  A
C489        C490   1.408       .  A
C489        H493   1.083       .  S
C490        O494   1.371       .  S
O492       C1295   1.373       .  S
O492        H496   0.993       .  S
O494        H495   0.992       .  S
C497        C498   1.403       .  A
C497        C502   1.406       .  A
C498        C499   1.403       .  A
C498        H503   1.081       .  S
C499        C500   1.411       .  A
C499        O504   1.372       .  S
C500        C501   1.406       .  A
C501        C502   1.401       .  A
C501        H505   1.084       .  S
C502        O506   1.371   1_455  S
O504        H508   0.992       .  S
O506        H507   0.992       .  S
C509        C510   1.420       .  A
C509        C514   1.423       .  A
C510        C511   1.412       .  A
C510        H515   1.080       .  S
C511        C512   1.406       .  A
C511        O516   1.371       .  S
C512        C513   1.397       .  A
C513        C514   1.388       .  A
C513        H517   1.085       .  S
C514        O518   1.373       .  S
O516        H520   0.992       .  S
O518        H519   0.992       .  S
C521        C522   1.405       .  A
C521        C526   1.406       .  A
C522        C523   1.414       .  A
C522        H527   1.083       .  S
C523        C524   1.423       .  A
C523        O528   1.371       .  S
C524        C525   1.419       .  A
C525        C526   1.391       .  A
C525        H529   1.077       .  S
C526        O530   1.375       .  S
O528        H532   0.992       .  S
O530        H531   0.993       .  S
C533        C534   1.398       .  A
C533        C538   1.406       .  A
C534        C535   1.405       .  A
C534        H539   1.084       .  S
C535        C536   1.427       .  A
C535        O540   1.369       .  S
C536        C970   1.573       .  S
C536        C537   1.418       .  A
C537        C538   1.396       .  A
C537        H541   1.080       .  S
C538        O542   1.373       .  S
O540        H544   0.992       .  S
O542        H543   0.992       .  S
C545        C546   1.403       .  A
C545        C550   1.410       .  A
C546        C547   1.409       .  A
C546        H551   1.084       .  S
C547        C548   1.426       .  A
C547        O552   1.374       .  S
C548        C549   1.412       .  A
C549        C550   1.391       .  A
C549        H553   1.084       .  S
C550        O554   1.372       .  S
O552        H556   0.993       .  S
O554        H555   0.992       .  S
C557        C558   1.404       .  A
C557        C562   1.412       .  A
C558        C559   1.395       .  A
C558        H563   1.078       .  S
C559        C560   1.405       .  A
C559        O564   1.372       .  S
C560        C561   1.405       .  A
C561        C562   1.404       .  A
C561        H565   1.084       .  S
C562        O566   1.373   1_455  S
O564        H568   0.992       .  S
O566        H567   0.992       .  S
C569        C570   1.417       .  A
C569        C574   1.421       .  A
C570        C571   1.416       .  A
C570        H575   1.081       .  S
C571        C572   1.412       .  A
C571        O576   1.371       .  S
C572        C573   1.402       .  A
C573        C574   1.388       .  A
C573        H577   1.084       .  S
C574        O578   1.374       .  S
O576        H580   0.992       .  S
O578        H579   0.992       .  S
C581        C582   1.396       .  A
C581        C586   1.403       .  A
C582        C583   1.399       .  A
C582        H587   1.085       .  S
C583        C584   1.432       .  A
C583        O588   1.371       .  S
C584        C585   1.421       .  A
C585        C586   1.411       .  A
C585        H589   1.083       .  S
C586        O590   1.371       .  S
O588        H592   0.993       .  S
O590        H591   0.992       .  S
C593        C594   1.404       .  A
C593        C598   1.412       .  A
C594        C595   1.400       .  A
C594        H599   1.083       .  S
C595        C596   1.405       .  A
C595        O600   1.371       .  S
C596        C597   1.402       .  A
C597        C598   1.405       .  A
C597        H601   1.084       .  S
C598        O602   1.373   1_455  S
O600        H604   0.992       .  S
O602        H603   0.992       .  S
C605        C606   1.411       .  A
C605        C610   1.403       .  A
C606        C607   1.405       .  A
C606        H611   1.083       .  S
C607        C608   1.405       .  A
C607        O612   1.371       .  S
C608        C609   1.409       .  A
C609        C610   1.396       .  A
C609        H613   1.084       .  S
C610       O1422   1.372       .  S
O612        H616   0.992       .  S
O614       C1418   1.372       .  S
O614        H615   0.992   1_565  S
C617        C618   1.414       .  A
C617        C622   1.417       .  A
C618        C619   1.393       .  A
C618        H623   1.075       .  S
C619        C620   1.398       .  A
C619        O624   1.373       .  S
C620        C621   1.401       .  A
C621        C622   1.405       .  A
C621        H625   1.084       .  S
C622        O626   1.372       .  S
O624        H628   0.992       .  S
O626        H627   0.992       .  S
C629        C630   1.403       .  A
C629        C634   1.409       .  A
C630        C631   1.405       .  A
C630        H635   1.083       .  S
C631        C632   1.409       .  A
C631        O636   1.371       .  S
C632        C633   1.399       .  A
C633        C634   1.393       .  A
C633        H637   1.084   1_545  S
C634        O638   1.372       .  S
O636        H640   0.992       .  S
O638        H639   0.992       .  S
C641        C983   1.571   1_545  S
C641        C642   1.416       .  A
C641        C646   1.425       .  A
C642        C643   1.412       .  A
C642        H647   1.078       .  S
C643        C644   1.415       .  A
C643        O648   1.372       .  S
C644        C645   1.401       .  A
C645        C646   1.399       .  A
C645        H649   1.083       .  S
C646       O1458   1.372   1_545  S
O648        H652   0.992       .  S
O650       C1454   1.372       .  S
O650        H651   0.992       .  S
C653       C1006   1.575   1_545  S
C653        C654   1.422       .  A
C653        C658   1.427       .  A
C654        C655   1.396       .  A
C654       H1467   1.078   1_545  S
C655        C656   1.397       .  A
C655        O660   1.372       .  S
C656        C657   1.399       .  A
C657        C658   1.407       .  A
C657        H661   1.084       .  S
C658        O662   1.372       .  S
H659       C1462   1.078       .  S
O660        H664   0.992   1_545  S
O662        H663   0.992       .  S
C665        C666   1.395       .  A
C665        C670   1.413       .  A
C666        C667   1.399       .  A
C666        H671   1.084       .  S
C667        C668   1.413       .  A
C667        O672   1.373       .  S
C668        C669   1.397       .  A
C669        C670   1.399       .  A
C669        H673   1.084       .  S
C670        O674   1.371       .  S
O672        H676   0.992       .  S
O674        H675   0.991       .  S
C677        C678   1.400       .  A
C677        C682   1.406       .  A
C678        C679   1.399       .  A
C678        H683   1.084       .  S
C679        C680   1.420       .  A
C679        O684   1.368       .  S
C680        C681   1.410       .  A
C681        C682   1.392       .  A
C681        H685   1.084       .  S
C682        O686   1.373       .  S
O684        H688   0.992       .  S
O686        H687   0.991       .  S
C689        C690   1.402       .  A
C689        C694   1.411       .  A
C690        C691   1.396       .  A
C690        H695   1.083       .  S
C691        C692   1.424       .  A
C691       O1504   1.374       .  S
C692        C693   1.419       .  A
C693        C694   1.410       .  A
C693        H697   1.077       .  S
C694        O698   1.371       .  S
O696       C1499   1.375   1_545  S
O696        H700   0.992       .  S
O698        H699   0.992       .  S
C701        C702   1.398       .  A
C701        C706   1.396       .  A
C702        C703   1.409       .  A
C702        H707   1.084       .  S
C703        C704   1.427       .  A
C703        O708   1.374       .  S
C704        C705   1.422       .  A
C705        C706   1.394       .  A
C705        H709   1.078       .  S
C706        O710   1.373       .  S
O708        H712   0.992       .  S
O710        H711   0.992       .  S
C713        C714   1.405       .  A
C713        C718   1.396       .  A
C714        C715   1.416       .  A
C714        H719   1.083       .  S
C715        C716   1.421       .  A
C715        O720   1.374       .  S
C716        C717   1.422       .  A
C717        C718   1.389       .  A
C717        H721   1.080       .  S
C718        O722   1.373       .  S
O720        H724   0.991       .  S
O722        H723   0.992       .  S
C725        C726   1.415       .  A
C725        C730   1.420       .  A
C726        C727   1.390       .  A
C726        H731   1.084       .  S
C727        C728   1.409       .  A
C727        O732   1.372       .  S
C728        C729   1.407       .  A
C729        C730   1.412       .  A
C729        H733   1.083       .  S
C730        O734   1.374       .  S
O732        H736   0.992       .  S
O734        H735   0.992       .  S
C737        C738   1.410       .  A
C737        C742   1.405       .  A
C738        C739   1.415       .  A
C738        H743   1.083       .  S
C739        C740   1.419       .  A
C739        O744   1.369       .  S
C740        C741   1.414       .  A
C741        C742   1.380       .  A
C741        H745   1.083       .  S
C742        O746   1.373       .  S
O744        H748   0.991       .  S
O746        H747   0.992       .  S
C749        C750   1.420       .  A
C749        C754   1.425       .  A
C750        C751   1.381       .  A
C750        H755   1.076       .  S
C751        C752   1.399       .  A
C751        O756   1.374       .  S
C752        C753   1.409       .  A
C753        C754   1.422       .  A
C753        H757   1.083       .  S
C754        O758   1.373       .  S
O756        H760   0.992       .  S
O758        H759   0.992       .  S
C761        C762   1.418       .  A
C761        C766   1.424       .  A
C762        C763   1.393       .  A
C762        H767   1.079       .  S
C763        C764   1.403       .  A
C763        O768   1.373       .  S
C764        C765   1.401       .  A
C765        C766   1.409       .  A
C765        H769   1.081       .  S
C766        O770   1.372       .  S
O768        H772   0.992       .  S
O770        H771   0.992       .  S
C773        C774   1.417       .  A
C773        C778   1.433       .  A
C774        C775   1.405       .  A
C774        H779   1.083       .  S
C775        C776   1.403       .  A
C775        O780   1.369       .  S
C776        C777   1.391       .  A
C777        C778   1.400       .  A
C777        H781   1.084       .  S
C778        O782   1.371       .  S
O780        H784   0.992       .  S
O782        H783   0.992       .  S
C785        C786   1.417       .  A
C785        C790   1.418       .  A
C786        C787   1.406       .  A
C786        H791   1.083       .  S
C787        C788   1.409       .  A
C787        O792   1.371       .  S
C788        C789   1.402       .  A
C789        C790   1.399       .  A
C789        H793   1.084       .  S
C790        O794   1.370       .  S
O792        H796   0.992       .  S
O794        H795   0.991       .  S
C797        C798   1.418       .  A
C797        C802   1.420       .  A
C798        C799   1.402       .  A
C798        H803   1.082       .  S
C799        C800   1.406       .  A
C799        O804   1.371       .  S
C800        C801   1.406       .  A
C801        C802   1.411       .  A
C801        H805   1.084       .  S
C802        O806   1.374       .  S
O804        H808   0.991       .  S
O806        H807   0.993       .  S
C809       C1569   1.573       .  S
C809       C1581   1.574       .  S
C809       C1593   1.562       .  S
C809       C1605   1.571       .  S
C810       C1524   1.570       .  S
C810       C1533   1.569       .  S
C810       C1548   1.567       .  S
C810       C1557   1.579       .  S
O811       Cr829   2.001       .  S
O811        C819   1.263       .  A
O812       Cr829   1.976       .  S
O812        C813   1.264       .  A
C813        O814   1.274       .  A
C813       C1596   1.487       .  S
O814       Cr830   2.034       .  S
O815       Cr830   2.001       .  S
O815        C816   1.266       .  A
C816        O817   1.262       .  A
C816       C1476   1.475       .  S
O817       Cr831   1.987       .  S
O818       Cr831   1.989       .  S
O818        C819   1.260       .  A
C819       C1509   1.467       .  S
O820       Cr829   2.010       .  S
O820        C828   1.267       .  A
O821       Cr829   1.986       .  S
O821        C822   1.259       .  A
C822        O823   1.260       .  A
C822       C1545   1.490       .  S
O823       Cr830   2.009       .  S
O824       Cr830   2.001       .  S
O824        C825   1.266       .  A
C825        O826   1.259       .  A
C825       C1485   1.473       .  S
O826       Cr831   1.962       .  S
O827       Cr831   2.007       .  S
O827        C828   1.267       .  A
C828       C1497   1.501       .  S
Cr829       O832   1.762       .  S
Cr830       O832   1.779       .  S
Cr831       O832   1.760       .  S
O833       Cr851   2.001       .  S
O833        C841   1.259       .  A
O834       Cr851   1.981       .  S
O834        C835   1.263       .  A
C835        O836   1.275       .  A
C835       C1608   1.492       .  S
O836       Cr852   2.036   1_554  S
O837       Cr852   1.984   1_554  S
O837        C838   1.261       .  A
C838        O839   1.263       .  A
C838       C1428   1.464       .  S
O839       Cr853   1.992   1_554  S
O840       Cr853   1.983   1_554  S
O840        C841   1.254       .  A
C841       C1464   1.466       .  S
O842       Cr851   1.984   1_556  S
O842        C850   1.263       .  A
O843       Cr851   1.984   1_556  S
O843        C844   1.263       .  A
C844        O845   1.263       .  A
C844       C1560   1.490       .  S
O845       Cr852   2.012       .  S
O846       Cr852   2.023       .  S
O846        C847   1.267       .  A
C847        O848   1.259       .  A
C847       C1437   1.479       .  S
O848       Cr853   1.962       .  S
O849       Cr853   2.023       .  S
O849        C850   1.273       .  A
C850       C1452   1.496       .  S
Cr851       O854   1.765   1_554  S
Cr852       O854   1.781       .  S
Cr853       O854   1.761       .  S
C855       C1488   1.528       .  S
C855        C856   1.537   1_565  S
C855        C861   1.532       .  S
C855        C859   1.541       .  S
C856        H863   1.085       .  S
C857        C858   1.541       .  S
C857       C1401   1.486       .  S
C858        C862   1.538   1_455  S
C858        H864   1.110       .  S
C859        H865   1.079       .  S
C859        C860   1.365   1_655  D
C860       C1413   1.485       .  S
C862       C1440   1.476       .  S
O867       Cr885   1.992       .  S
O867        C875   1.261       .  A
O868       Cr885   1.980       .  S
O868        C869   1.258       .  A
C869        O870   1.265       .  A
C869       C1389   1.478       .  S
O870       Cr886   2.014       .  S
O871       Cr886   2.034       .  S
O871        C872   1.276       .  A
C872        O873   1.263       .  A
C872       C1368   1.478       .  S
O873       Cr887   1.966       .  S
O874       Cr887   1.998       .  S
O874        C875   1.263       .  A
C875       C1341   1.478       .  S
O876       Cr885   1.990   1_556  S
O876        C884   1.262       .  A
O877       Cr885   1.951   1_556  S
O877        C878   1.258       .  A
C878        O879   1.273       .  A
C878       C1380   1.493       .  S
O879       Cr886   2.042   1_556  S
O880       Cr886   2.016   1_556  S
O880        C881   1.265       .  A
C881        O882   1.256       .  A
C881       C1416   1.482       .  S
O882       Cr887   1.976   1_556  S
O883       Cr887   1.990   1_556  S
O883        C884   1.264       .  A
C884       C1353   1.481       .  S
Cr885       O888   1.760       .  S
Cr886       O888   1.776       .  S
Cr887       O888   1.762       .  S
O889       Cr907   1.997       .  S
O889        C897   1.264       .  A
O890       Cr907   1.972       .  S
O890        C891   1.255       .  A
C891        O892   1.263       .  A
C891       C1320   1.481       .  S
O892       Cr908   2.016       .  S
O893       Cr908   2.020       .  S
O893        C894   1.271       .  A
C894        O895   1.262       .  A
C894       C1308   1.483       .  S
O895       Cr909   1.975       .  S
O896       Cr909   2.009       .  S
O896        C897   1.269       .  A
C897       C1293   1.482       .  S
O898       Cr907   1.997       .  S
O898        C906   1.260       .  A
O899       Cr907   1.961       .  S
O899        C900   1.263       .  A
C900        O901   1.276       .  A
C900       C1329   1.494       .  S
O901       Cr908   2.044       .  S
O902       Cr908   2.001       .  S
O902        C903   1.265       .  A
C903        O904   1.260       .  A
C903       C1404   1.473       .  S
O904       Cr909   1.983       .  S
O905       Cr909   1.990       .  S
O905        C906   1.258       .  A
C906       C1281   1.469       .  S
Cr907       O910   1.766       .  S
Cr908       O910   1.779       .  S
Cr909       O910   1.762       .  S
C911       C1257   1.573       .  S
C911       C1269   1.567       .  S
C911       C1332   1.574       .  S
C911       C1377   1.557       .  S
C912       C1233   1.564       .  S
C912       C1248   1.562       .  S
C912       C1317   1.567       .  S
C912       C1392   1.574       .  S
C913       C1425   1.535       .  S
C913        C914   1.537       .  S
C913        C919   1.546       .  S
C913        C917   1.532       .  S
C914        H921   1.080       .  S
C915        C916   1.536   1_655  S
C915       C1473   1.479       .  S
C916        C920   1.538       .  S
C916        H922   1.110       .  S
C917        H923   1.086       .  S
C917        C918   1.365   1_655  D
C918       C1305   1.483       .  S
C919        H924   1.085       .  S
C920       C1365   1.490       .  S
O925       Cr943   1.992       .  S
O925        C933   1.267       .  A
O926       Cr943   1.987       .  S
O926        C927   1.260       .  A
C927        O928   1.259       .  A
C927       C1209   1.492       .  S
O928       Cr944   2.012       .  S
O929       Cr944   1.997       .  S
O929        C930   1.264       .  A
C930        O931   1.260       .  A
C930       C1197   1.466       .  S
O931       Cr945   1.964       .  S
O932       Cr945   2.000       .  S
O932        C933   1.265       .  A
C933       C1272   1.489       .  S
O934       Cr943   1.985       .  S
O934        C942   1.259       .  A
O935       Cr943   1.961       .  S
O935        C936   1.260       .  A
C936        O937   1.273       .  A
C936       C1221   1.482       .  S
O937       Cr944   2.034       .  S
O938       Cr944   2.000       .  S
O938        C939   1.265       .  A
C939        O940   1.262       .  A
C939       C1185   1.473       .  S
O940       Cr945   1.985       .  S
O941       Cr945   1.993       .  S
O941        C942   1.263       .  A
C942       C1236   1.485       .  S
Cr943       O946   1.762       .  S
Cr944       O946   1.784       .  S
Cr945       O946   1.764       .  S
O947       Cr965   2.000       .  S
O947        C955   1.267       .  A
O948       Cr965   1.964       .  S
O948        C949   1.257       .  A
C949        O950   1.269       .  A
C949       C1161   1.476       .  S
O950       Cr966   2.031       .  S
O951       Cr966   1.998       .  S
O951        C952   1.264       .  A
C952        O953   1.259       .  A
C952       C1140   1.473       .  S
O953       Cr967   1.979       .  S
O954       Cr967   1.994       .  S
O954        C955   1.266       .  A
C955       C1260   1.489       .  S
O956       Cr965   1.983   1_554  S
O956        C964   1.260       .  A
O957       Cr965   2.008   1_554  S
O957        C958   1.264       .  A
C958        O959   1.259       .  A
C958       C1173   1.481       .  S
O959       Cr966   1.993   1_554  S
O960       Cr966   2.013   1_554  S
O960        C961   1.268       .  A
C961        O962   1.265       .  A
C961       C1149   1.476       .  S
O962       Cr967   1.975   1_554  S
O963       Cr967   2.000   1_554  S
O963        C964   1.261       .  A
C964       C1245   1.486       .  S
Cr965       O968   1.765       .  S
Cr966       O968   1.785       .  S
Cr967       O968   1.768       .  S
C969       C1212   1.571       .  S
C969       C1356   1.560       .  S
C970       C1176   1.572       .  S
C970       C1296   1.573       .  S
C971       C1200   1.524       .  S
C971        C972   1.529       .  S
C971        C977   1.540       .  S
C971        C975   1.542       .  S
C972        H979   1.087       .  S
C972        C973   1.355       .  D
C973        C974   1.535       .  S
C973       C1137   1.472       .  S
C974        C978   1.531       .  S
C974        C976   1.541       .  S
C974        H980   1.111       .  S
C975        H981   1.081       .  S
C975        C976   1.364       .  D
C976       C1125   1.477       .  S
C977        H982   1.086       .  S
C977        C978   1.367       .  D
C978       C1113   1.468       .  S
C983       C1101   1.578       .  S
C983       C1500   1.583       .  S
O984      Cr1002   1.987       .  S
O984        C992   1.258       .  A
O985      Cr1002   2.016       .  S
O985        C986   1.267       .  A
C986        O987   1.263       .  A
C986       C1092   1.492       .  S
O987      Cr1003   2.007       .  S
O988      Cr1003   2.014       .  S
O988        C989   1.268       .  A
C989        O990   1.258       .  A
C989       C1116   1.481       .  S
O990      Cr1004   1.964       .  S
O991      Cr1004   2.005       .  S
O991        C992   1.266       .  A
C992       C1521   1.470       .  S
O993      Cr1002   2.024       .  S
O993       C1001   1.269       .  A
O994      Cr1002   1.967       .  S
O994        C995   1.259       .  A
C995        O996   1.273       .  A
C995       C1077   1.486       .  S
O996      Cr1003   2.035       .  S
O997      Cr1003   2.009       .  S
O997        C998   1.268       .  A
C998        O999   1.264       .  A
C998       C1065   1.493       .  S
O999      Cr1004   2.000       .  S
O1000     Cr1004   1.979       .  S
O1000      C1001   1.258       .  A
C1001      C1584   1.473       .  S
Cr1002     O1005   1.765       .  S
Cr1003     O1005   1.768       .  S
Cr1004     O1005   1.761       .  S
C1006      C1053   1.568       .  S
C1006      C1512   1.572       .  S
O1007     Cr1025   1.997   1_556  S
O1007      C1015   1.265       .  A
O1008     Cr1025   1.984   1_556  S
O1008      C1009   1.260       .  A
C1009      O1010   1.270       .  A
C1009      C1104   1.484       .  S
O1010     Cr1026   2.029   1_556  S
O1011     Cr1026   2.003   1_556  S
O1011      C1012   1.265       .  A
C1012      O1013   1.258       .  A
C1012      C1128   1.474       .  S
O1013     Cr1027   1.984   1_556  S
O1014     Cr1027   1.997   1_556  S
O1014      C1015   1.264       .  A
C1015      C1536   1.491       .  S
O1016     Cr1025   1.996       .  S
O1016      C1024   1.262       .  A
O1017     Cr1025   2.003       .  S
O1017      C1018   1.263       .  A
C1018      O1019   1.262       .  A
C1018      C1056   1.481       .  S
O1019     Cr1026   2.000       .  S
O1020     Cr1026   2.014       .  S
O1020      C1021   1.270       .  A
C1021      O1022   1.264       .  A
C1021      C1041   1.479       .  S
O1022     Cr1027   1.982       .  S
O1023     Cr1027   1.998       .  S
O1023      C1024   1.262       .  A
C1024      C1572   1.478       .  S
Cr1025     O1028   1.763       .  S
Cr1026     O1028   1.772       .  S
Cr1027     O1028   1.770       .  S
C1029      C1152   1.534       .  S
C1029      C1030   1.542       .  S
C1029      C1035   1.537       .  S
C1029      C1033   1.532       .  S
C1030      H1037   1.085       .  S
C1030      C1031   1.370       .  D
C1031      C1032   1.538       .  S
C1031      C1044   1.484       .  S
C1032      C1036   1.541       .  S
C1032      C1034   1.556       .  S
C1032      H1038   1.109       .  S
C1033      H1039   1.086       .  S
C1033      C1034   1.369       .  D
C1034      C1068   1.498       .  S
C1035      H1040   1.083       .  S
C1035      C1036   1.359       .  D
C1036      C1188   1.485       .  S
C1041      C1042   1.403       .  A
C1041      C1046   1.409       .  A
C1042      C1043   1.398       .  A
C1042      H1047   1.084       .  S
C1043      C1044   1.409       .  A
C1043      O1048   1.373       .  S
C1044      C1045   1.405       .  A
C1045      C1046   1.403       .  A
C1045      H1049   1.083       .  S
C1046      O1050   1.371       .  S
O1048      H1052   0.992       .  S
O1050      H1051   0.992       .  S
C1053      C1054   1.413       .  A
C1053      C1058   1.426       .  A
C1054      C1055   1.403       .  A
C1054      H1059   1.079       .  S
C1055      C1056   1.406       .  A
C1055      O1060   1.371       .  S
C1056      C1057   1.398       .  A
C1057      C1058   1.408       .  A
C1057      H1061   1.084       .  S
C1058      O1062   1.373   1_565  S
O1060      H1064   0.992       .  S
O1062      H1063   0.992       .  S
C1065      C1066   1.409       .  A
C1065      C1070   1.409       .  A
C1066      C1067   1.403       .  A
C1066      H1071   1.084       .  S
C1067      C1068   1.406       .  A
C1067      O1072   1.370       .  S
C1068      C1069   1.412       .  A
C1069      C1070   1.409       .  A
C1069      H1073   1.083       .  S
C1070      O1074   1.371       .  S
O1072      H1076   0.992       .  S
O1074      H1075   0.992       .  S
C1077      C1078   1.401       .  A
C1077      C1082   1.409       .  A
C1078      C1079   1.407       .  A
C1078      H1083   1.083       .  S
C1079      C1080   1.425       .  A
C1080      C1081   1.410       .  A
C1081      C1082   1.399       .  A
C1081      H1085   1.079       .  S
C1082      O1086   1.370       .  S
O1084      H1088   0.992       .  S
O1086      H1087   0.992       .  S
C1089      C1090   1.424       .  A
C1089      C1094   1.422       .  A
C1090      C1091   1.400       .  A
C1090      H1095   1.081       .  S
C1091      C1092   1.401       .  A
C1091      O1096   1.373       .  S
C1092      C1093   1.407       .  A
C1093      C1094   1.417       .  A
C1093      H1097   1.083       .  S
C1094      O1098   1.368       .  S
O1096      H1100   0.992       .  S
O1098      H1099   0.992       .  S
C1101      C1102   1.414       .  A
C1101      C1106   1.435       .  A
C1102      C1103   1.411       .  A
C1102      H1107   1.083       .  S
C1103      C1104   1.408       .  A
C1103      O1108   1.371       .  S
C1104      C1105   1.393       .  A
C1105      C1106   1.405       .  A
C1105      H1109   1.084       .  S
C1106      O1110   1.374   1_565  S
O1108      H1112   0.992       .  S
O1110      H1111   0.993       .  S
C1113      C1114   1.399       .  A
C1113      C1118   1.402       .  A
C1114      C1115   1.398       .  A
C1114      H1119   1.084       .  S
C1115      C1116   1.414       .  A
C1115      O1120   1.372       .  S
C1116      C1117   1.408       .  A
C1117      C1118   1.396       .  A
C1117      H1121   1.084       .  S
C1118      O1122   1.371       .  S
O1120      H1124   0.992       .  S
O1122      H1123   0.991       .  S
C1125      C1126   1.397       .  A
C1125      C1130   1.411       .  A
C1126      C1127   1.398       .  A
C1126      H1131   1.083       .  S
C1127      C1128   1.413       .  A
C1127      O1132   1.372       .  S
C1128      C1129   1.401       .  A
C1129      C1130   1.403       .  A
C1129      H1133   1.084       .  S
C1130      O1134   1.372       .  S
O1132      H1136   0.992       .  S
O1134      H1135   0.991       .  S
C1137      C1138   1.392       .  A
C1137      C1142   1.413       .  A
C1138      C1139   1.395       .  A
C1138      H1143   1.083       .  S
C1139      C1140   1.415       .  A
C1139      O1144   1.372       .  S
C1140      C1141   1.399       .  A
C1141      C1142   1.403       .  A
C1141      H1145   1.083       .  S
C1142      O1146   1.373       .  S
O1144      H1148   0.991       .  S
O1146      H1147   0.992       .  S
C1149      C1150   1.405       .  A
C1149      C1154   1.403       .  A
C1150      C1151   1.402       .  A
C1150      H1155   1.083       .  S
C1151      C1152   1.415       .  A
C1151      O1156   1.371       .  S
C1152      C1153   1.412       .  A
C1153      C1154   1.395       .  A
C1153      H1157   1.079       .  S
C1154      O1158   1.373       .  S
O1156      H1160   0.991       .  S
O1158      H1159   0.992       .  S
C1161      C1162   1.386       .  A
C1161      C1166   1.406       .  A
C1162      C1163   1.391       .  A
C1162      H1167   1.086       .  S
C1163      C1164   1.439       .  A
C1163      O1168   1.374       .  S
C1164      C1165   1.420       .  A
C1165      C1166   1.415       .  A
C1165      H1169   1.082       .  S
C1166      O1170   1.371       .  S
O1168      H1172   0.993       .  S
O1170      H1171   0.992       .  S
C1173      C1174   1.397       .  A
C1173      C1178   1.405       .  A
C1174      C1175   1.407       .  A
C1174      H1179   1.084       .  S
C1175      C1176   1.427       .  A
C1176      C1177   1.414       .  A
C1177      C1178   1.407       .  A
C1177      H1181   1.080       .  S
C1178      O1182   1.372       .  S
O1180      H1184   0.992       .  S
O1182      H1183   0.991       .  S
C1185      C1186   1.399       .  A
C1185      C1190   1.412       .  A
C1186      C1187   1.402       .  A
C1186      H1191   1.084       .  S
C1187      C1188   1.416       .  A
C1187      O1192   1.372       .  S
C1188      C1189   1.396       .  A
C1189      C1190   1.400       .  A
C1189      H1193   1.080       .  S
C1190      O1194   1.373       .  S
O1192      H1196   0.992       .  S
O1194      H1195   0.992       .  S
C1197      C1198   1.398       .  A
C1197      C1202   1.404       .  A
C1198      C1199   1.391       .  A
C1198      H1203   1.084       .  S
C1199      C1200   1.415       .  A
C1199      O1204   1.373       .  S
C1200      C1201   1.412       .  A
C1201      C1202   1.399       .  A
C1201      H1205   1.076       .  S
C1202      O1206   1.372       .  S
O1204      H1208   0.992       .  S
O1206      H1207   0.992       .  S
C1209      C1210   1.396       .  A
C1209      C1214   1.413       .  A
C1210      C1211   1.386       .  A
C1210      H1215   1.084       .  S
C1211      C1212   1.424       .  A
C1211      O1216   1.369       .  S
C1212      C1213   1.417       .  A
C1213      C1214   1.419       .  A
C1213      H1217   1.079       .  S
C1214      O1218   1.371       .  S
O1216      H1220   0.992       .  S
O1218      H1219   0.992       .  S
C1221      C1222   1.401       .  A
C1221      C1226   1.409       .  A
C1222      C1223   1.408       .  A
C1222      H1227   1.083       .  S
C1223      C1224   1.424       .  A
C1223      O1228   1.373   1_565  S
C1224      C1225   1.409       .  A
C1225      C1226   1.396       .  A
C1225      H1229   1.080       .  S
C1226      O1230   1.372       .  S
O1228      H1232   0.992       .  S
O1230      H1231   0.992       .  S
C1233      C1234   1.412       .  A
C1233      C1238   1.431       .  A
C1234      C1235   1.391       .  A
C1234      H1239   1.084       .  S
C1235      C1236   1.411       .  A
C1235      O1240   1.372       .  S
C1236      C1237   1.399       .  A
C1237      C1238   1.408       .  A
C1237      H1241   1.084       .  S
C1238      O1242   1.373       .  S
O1240      H1244   0.992       .  S
O1242      H1243   0.992       .  S
C1245      C1246   1.406       .  A
C1245      C1250   1.406       .  A
C1246      C1247   1.403       .  A
C1246      H1251   1.083       .  S
C1247      C1248   1.420       .  A
C1247      O1252   1.374       .  S
C1248      C1249   1.417       .  A
C1249      C1250   1.397       .  A
C1249      H1253   1.080       .  S
C1250      O1254   1.371       .  S
O1252      H1256   0.991       .  S
O1254      H1255   0.992       .  S
C1257      C1258   1.419       .  A
C1257      C1262   1.423       .  A
C1258      C1259   1.408       .  A
C1258      H1263   1.078       .  S
C1259      C1260   1.408       .  A
C1259      O1264   1.371       .  S
C1260      C1261   1.402       .  A
C1261      C1262   1.394       .  A
C1261      H1265   1.084       .  S
C1262      O1266   1.373       .  S
O1264      H1268   0.992       .  S
O1266      H1267   0.992       .  S
C1269      C1270   1.410       .  A
C1269      C1274   1.432       .  A
C1270      C1271   1.397       .  A
C1270      H1275   1.083       .  S
C1271      C1272   1.413       .  A
C1271      O1276   1.372       .  S
C1272      C1273   1.399       .  A
C1273      C1274   1.405       .  A
C1273      H1277   1.084       .  S
C1274      O1278   1.374       .  S
O1276      H1280   0.992       .  S
O1278      H1279   0.993       .  S
C1281      C1282   1.401       .  A
C1281      C1286   1.399       .  A
C1282      C1283   1.406       .  A
C1282      H1287   1.084       .  S
C1283      C1284   1.419       .  A
C1283      O1288   1.369       .  S
C1284      C1285   1.421       .  A
C1285      C1286   1.392       .  A
C1285      H1289   1.081       .  S
C1286      O1290   1.373       .  S
O1288      H1292   0.992       .  S
O1290      H1291   0.992       .  S
C1293      C1294   1.394       .  A
C1293      C1298   1.405       .  A
C1294      C1295   1.398       .  A
C1294      H1299   1.084       .  S
C1295      C1296   1.432       .  A
C1296      C1297   1.420       .  A
C1297      C1298   1.408       .  A
C1297      H1301   1.083       .  S
C1298      O1302   1.371       .  S
O1300      H1304   0.993       .  S
O1302      H1303   0.992       .  S
C1305      C1306   1.402       .  A
C1305      C1310   1.406       .  A
C1306      C1307   1.402       .  A
C1306      H1311   1.079       .  S
C1307      C1308   1.411       .  A
C1307      O1312   1.372       .  S
C1308      C1309   1.407       .  A
C1309      C1310   1.402       .  A
C1309      H1313   1.084       .  S
C1310      O1314   1.371   1_455  S
O1312      H1316   0.992       .  S
O1314      H1315   0.992       .  S
C1317      C1318   1.421       .  A
C1317      C1322   1.423       .  A
C1318      C1319   1.413       .  A
C1318      H1323   1.080       .  S
C1319      C1320   1.405       .  A
C1319      O1324   1.371       .  S
C1320      C1321   1.398       .  A
C1321      C1322   1.388       .  A
C1321      H1325   1.085       .  S
C1322      O1326   1.373       .  S
O1324      H1328   0.992       .  S
O1326      H1327   0.992       .  S
C1329      C1330   1.406       .  A
C1329      C1334   1.406       .  A
C1330      C1331   1.416       .  A
C1330      H1335   1.083       .  S
C1331      C1332   1.423       .  A
C1331      O1336   1.371       .  S
C1332      C1333   1.420       .  A
C1333      C1334   1.393       .  A
C1333      H1337   1.077       .  S
C1334      O1338   1.374       .  S
O1336      H1340   0.992       .  S
O1338      H1339   0.993       .  S
C1341      C1342   1.399       .  A
C1341      C1346   1.405       .  A
C1342      C1343   1.407       .  A
C1342      H1347   1.084       .  S
C1343      C1344   1.427       .  A
C1343      O1348   1.369       .  S
C1344      C1345   1.417       .  A
C1345      C1346   1.393       .  A
C1345      H1349   1.081   1_565  S
C1346      O1350   1.373       .  S
O1348      H1352   0.992       .  S
O1350      H1351   0.992       .  S
C1353      C1354   1.401       .  A
C1353      C1358   1.411       .  A
C1354      C1355   1.406       .  A
C1354      H1359   1.084       .  S
C1355      C1356   1.426       .  A
C1355      O1360   1.374       .  S
C1356      C1357   1.413       .  A
C1357      C1358   1.392       .  A
C1357      H1361   1.084       .  S
C1358      O1362   1.372       .  S
O1360      H1364   0.993       .  S
O1362      H1363   0.992       .  S
C1365      C1366   1.404       .  A
C1365      C1370   1.412       .  A
C1366      C1367   1.398       .  A
C1366      H1371   1.080       .  S
C1367      C1368   1.408       .  A
C1367      O1372   1.372       .  S
C1368      C1369   1.404       .  A
C1369      C1370   1.404       .  A
C1369      H1373   1.084       .  S
C1370      O1374   1.373   1_455  S
O1372      H1376   0.992       .  S
O1374      H1375   0.992       .  S
C1377      C1378   1.417       .  A
C1377      C1382   1.422       .  A
C1378      C1379   1.416       .  A
C1378      H1383   1.081       .  S
C1379      C1380   1.413       .  A
C1379      O1384   1.371       .  S
C1380      C1381   1.401       .  A
C1381      C1382   1.387       .  A
C1381      H1385   1.084       .  S
C1382      O1386   1.375       .  S
O1384      H1388   0.992       .  S
O1386      H1387   0.992       .  S
C1389      C1390   1.395       .  A
C1389      C1394   1.402       .  A
C1390      C1391   1.399       .  A
C1390      H1395   1.085       .  S
C1391      C1392   1.433       .  A
C1391      O1396   1.371       .  S
C1392      C1393   1.420       .  A
C1393      C1394   1.410       .  A
C1393      H1397   1.083       .  S
C1394      O1398   1.371       .  S
O1396      H1400   0.993       .  S
O1398      H1399   0.992       .  S
C1401      C1402   1.403       .  A
C1401      C1406   1.411       .  A
C1402      C1403   1.402       .  A
C1402      H1407   1.084       .  S
C1403      C1404   1.408       .  A
C1403      O1408   1.372       .  S
C1404      C1405   1.402       .  A
C1405      C1406   1.405       .  A
C1405      H1409   1.084       .  S
C1406      O1410   1.372   1_455  S
O1408      H1412   0.992       .  S
O1410      H1411   0.992       .  S
C1413      C1414   1.410       .  A
C1413      C1418   1.403       .  A
C1414      C1415   1.407       .  A
C1414      H1419   1.084       .  S
C1415      C1416   1.407       .  A
C1415      O1420   1.371       .  S
C1416      C1417   1.407       .  A
C1417      C1418   1.396       .  A
C1417      H1421   1.084       .  S
O1420      H1424   0.992       .  S
O1422      H1423   0.992       .  S
C1425      C1426   1.414       .  A
C1425      C1430   1.416       .  A
C1426      C1427   1.394       .  A
C1426      H1431   1.075       .  S
C1427      C1428   1.399       .  A
C1427      O1432   1.373       .  S
C1428      C1429   1.400       .  A
C1429      C1430   1.404       .  A
C1429      H1433   1.084       .  S
C1430      O1434   1.371       .  S
O1432      H1436   0.992       .  S
O1434      H1435   0.992       .  S
C1437      C1438   1.406       .  A
C1437      C1442   1.411       .  A
C1438      C1439   1.408       .  A
C1438      H1443   1.083       .  S
C1439      C1440   1.409       .  A
C1439      O1444   1.371       .  S
C1440      C1441   1.399       .  A
C1441      C1442   1.393       .  A
C1441      H1445   1.084       .  S
C1442      O1446   1.372       .  S
O1444      H1448   0.992       .  S
O1446      H1447   0.992       .  S
C1449      C1450   1.414       .  A
C1449      C1454   1.425       .  A
C1450      C1451   1.410       .  A
C1450      H1455   1.077       .  S
C1451      C1452   1.414       .  A
C1451      O1456   1.372       .  S
C1452      C1453   1.401       .  A
C1453      C1454   1.398       .  A
C1453      H1457   1.083       .  S
O1456      H1460   0.992       .  S
O1458      H1459   0.992       .  S
C1461      C1462   1.421       .  A
C1461      C1466   1.426       .  A
C1462      C1463   1.394       .  A
C1463      C1464   1.397       .  A
C1463      O1468   1.373       .  S
C1464      C1465   1.397       .  A
C1465      C1466   1.405       .  A
C1465      H1469   1.084       .  S
C1466      O1470   1.372       .  S
O1468      H1472   0.992       .  S
O1470      H1471   0.992       .  S
C1473      C1474   1.396       .  A
C1473      C1478   1.414       .  A
C1474      C1475   1.401       .  A
C1474      H1479   1.084       .  S
C1475      C1476   1.415       .  A
C1475      O1480   1.373       .  S
C1476      C1477   1.398       .  A
C1477      C1478   1.401       .  A
C1477      H1481   1.083       .  S
C1478      O1482   1.372       .  S
O1480      H1484   0.992       .  S
O1482      H1483   0.992       .  S
C1485      C1486   1.402       .  A
C1485      C1490   1.408       .  A
C1486      C1487   1.401       .  A
C1486      H1491   1.084       .  S
C1487      C1488   1.416       .  A
C1487      O1492   1.370       .  S
C1488      C1489   1.409       .  A
C1489      C1490   1.390       .  A
C1489      H1493   1.084   1_565  S
C1490      O1494   1.373       .  S
O1492      H1496   0.992       .  S
O1494      H1495   0.992       .  S
C1497      C1498   1.403       .  A
C1497      C1502   1.411       .  A
C1498      C1499   1.400       .  A
C1498      H1503   1.083       .  S
C1499      C1500   1.425       .  A
C1500      C1501   1.420       .  A
C1501      C1502   1.413       .  A
C1501      H1505   1.077       .  S
C1502      O1506   1.371       .  S
O1504      H1508   0.992       .  S
O1506      H1507   0.992       .  S
C1509      C1510   1.399       .  A
C1509      C1514   1.395       .  A
C1510      C1511   1.410       .  A
C1510      H1515   1.084       .  S
C1511      C1512   1.427       .  A
C1511      O1516   1.374       .  S
C1512      C1513   1.422       .  A
C1513      C1514   1.392       .  A
C1513      H1517   1.078   1_565  S
C1514      O1518   1.373       .  S
O1516      H1520   0.992       .  S
O1518      H1519   0.992   1_565  S
C1521      C1522   1.404       .  A
C1521      C1526   1.394       .  A
C1522      C1523   1.415       .  A
C1522      H1527   1.083       .  S
C1523      C1524   1.422       .  A
C1523      O1528   1.374       .  S
C1524      C1525   1.422       .  A
C1525      C1526   1.386       .  A
C1525      H1529   1.079       .  S
C1526      O1530   1.373       .  S
O1528      H1532   0.991       .  S
O1530      H1531   0.991       .  S
C1533      C1534   1.414       .  A
C1533      C1538   1.422       .  A
C1534      C1535   1.390       .  A
C1534      H1539   1.084       .  S
C1535      C1536   1.411       .  A
C1535      O1540   1.372       .  S
C1536      C1537   1.408       .  A
C1537      C1538   1.415       .  A
C1537      H1541   1.083       .  S
C1538      O1542   1.374       .  S
O1540      H1544   0.992       .  S
O1542      H1543   0.992       .  S
C1545      C1546   1.411       .  A
C1545      C1550   1.407       .  A
C1546      C1547   1.418       .  A
C1546      H1551   1.083       .  S
C1547      C1548   1.420       .  A
C1547      O1552   1.368       .  S
C1548      C1549   1.415       .  A
C1549      C1550   1.384       .  A
C1549      H1553   1.083       .  S
C1550      O1554   1.373       .  S
O1552      H1556   0.991       .  S
O1554      H1555   0.992       .  S
C1557      C1558   1.421       .  A
C1557      C1562   1.425       .  A
C1558      C1559   1.382       .  A
C1558      H1563   1.076       .  S
C1559      C1560   1.401       .  A
C1559      O1564   1.374       .  S
C1560      C1561   1.409       .  A
C1561      C1562   1.423       .  A
C1561      H1565   1.083       .  S
C1562      O1566   1.373       .  S
O1564      H1568   0.992       .  S
O1566      H1567   0.992       .  S
C1569      C1570   1.420       .  A
C1569      C1574   1.424       .  A
C1570      C1571   1.394       .  A
C1570      H1575   1.078       .  S
C1571      C1572   1.402       .  A
C1571      O1576   1.373       .  S
C1572      C1573   1.400       .  A
C1573      C1574   1.408       .  A
C1573      H1577   1.082       .  S
C1574      O1578   1.371       .  S
O1576      H1580   0.992       .  S
O1578      H1579   0.992       .  S
C1581      C1582   1.417       .  A
C1581      C1586   1.434       .  A
C1582      C1583   1.406       .  A
C1582      H1587   1.083       .  S
C1583      C1584   1.403       .  A
C1583      O1588   1.369       .  S
C1584      C1585   1.391       .  A
C1585      C1586   1.399       .  A
C1585      H1589   1.084       .  S
C1586      O1590   1.371       .  S
O1588      H1592   0.992       .  S
O1590      H1591   0.992       .  S
C1593      C1594   1.418       .  A
C1593      C1598   1.419       .  A
C1594      C1595   1.408       .  A
C1594      H1599   1.083       .  S
C1595      C1596   1.409       .  A
C1595      O1600   1.371       .  S
C1596      C1597   1.403       .  A
C1597      C1598   1.400       .  A
C1597      H1601   1.084       .  S
C1598      O1602   1.370       .  S
O1600      H1604   0.992       .  S
O1602      H1603   0.991       .  S
C1605      C1606   1.419       .  A
C1605      C1610   1.421       .  A
C1606      C1607   1.403       .  A
C1606      H1611   1.083       .  S
C1607      C1608   1.406       .  A
C1607      O1612   1.371       .  S
C1608      C1609   1.406       .  A
C1609      C1610   1.411       .  A
C1609      H1613   1.084       .  S
C1610      O1614   1.374       .  S
O1612      H1616   0.991       .  S
O1614      H1615   0.993       .  S
