geometry optimzed in LAMMPS
_audit_creation_date              2020-11-30 
_audit_creation_method            'lammps2cif' 
_symmetry_space_group_name_H-M    'P1' 
_symmetry_Int_Tables_number       1 
_symmetry_cell_setting            triclinic 
loop_ 
_symmetry_equiv_pos_as_xyz 
  x,y,z 
_cell_length_a                    45.57713043 
_cell_length_b                    45.77021371365237 
_cell_length_c                    43.91603872407518 
_cell_angle_alpha                 90.06055692815046 
_cell_angle_beta                  90.01970609897023 
_cell_angle_gamma                 120.88258288226444 
loop_ 
_atom_site_label 
_atom_site_type_symbol 
_atom_site_fract_x 
_atom_site_fract_y 
_atom_site_fract_z 
_atom_site_charge 
In1        In  0.98852546  0.26981951  0.66320136     1.36900
C2          C  0.93064621  0.21264989  0.65021112     0.79600
O3          O  0.97949468  0.25297909  0.71163527    -0.58900
O4          O  0.97968957  0.29824172  0.70134561    -0.49800
C5          C  0.04837514  0.27486846  0.67121063     0.72200
O6          O  0.02134848  0.24724079  0.66480958    -0.44700
C7          C  0.99889876  0.30401644  0.61105958     0.76900
O8          O  0.95937148  0.21492886  0.65034969    -0.56500
O9          O  0.98448481  0.30862931  0.63363182    -0.46600
O10         O  0.93179125  0.24031228  0.65530291    -0.53000
C11         C  0.97562674  0.27659941  0.72143422     0.87100
O12         O  0.04484402  0.30050770  0.67333782    -0.54800
O13         O  0.00878735  0.28335924  0.61590331    -0.58100
In14       In  0.31390627  0.25538620  0.64539963     1.36900
C15         C  0.29938469  0.19597912  0.62167384     0.79600
O16         O  0.31166259  0.28023762  0.60245739    -0.58900
O17         O  0.36047793  0.29133240  0.61715776    -0.49800
C18         C  0.26136579  0.26323949  0.65867667     0.72200
O19         O  0.25829338  0.23716269  0.64589657    -0.44700
C20         C  0.34359166  0.25827985  0.69921822     0.76900
O21         O  0.27862363  0.19931386  0.63822700    -0.56500
O22         O  0.32361089  0.23099454  0.68558681    -0.46600
O23         O  0.32728287  0.22326635  0.61691275    -0.53000
C24         C  0.34314749  0.29512498  0.59675499     0.87100
O25         O  0.29170947  0.28533257  0.66568332    -0.54800
O26         O  0.34933291  0.28457233  0.68484391    -0.58100
In27       In  0.32387755  0.94213692  0.64362013     1.36900
C28         C  0.31492593  0.99053605  0.62069958     0.79600
O29         O  0.32946655  0.97230972  0.68544697    -0.58900
O30         O  0.35961291  0.94946515  0.68306577    -0.49800
C31         C  0.27073959  0.88234989  0.65959027     0.72200
O32         O  0.26865126  0.90809609  0.65346109    -0.44700
C33         C  0.35002549  0.93157469  0.59332164     0.76900
O34         O  0.29036498  0.96091285  0.62628575    -0.56500
O35         O  0.36865869  0.94876550  0.61547677    -0.46600
O36         O  0.34411519  0.99480488  0.62592678    -0.53000
C37         C  0.35107758  0.96732866  0.69842385     0.87100
O38         O  0.30062750  0.88730478  0.65798688    -0.54800
O39         O  0.31850921  0.91879967  0.59786114    -0.58100
In40       In  0.98820904  0.60472326  0.65473979     1.36900
C41         C  0.93558491  0.61356469  0.64558320     0.79600
O42         O  0.97848952  0.56395210  0.61966861    -0.58900
O43         O  0.00997258  0.61579998  0.60779625    -0.49800
C44         C  0.04952002  0.65947691  0.66394174     0.72200
O45         O  0.02433118  0.66027996  0.65325364    -0.44700
C46         C  0.96598885  0.56921820  0.70678101     0.76900
O47         O  0.93628853  0.58821976  0.63510857    -0.56500
O48         O  0.96239150  0.59376447  0.69968400    -0.46600
O49         O  0.96235048  0.63469938  0.65957192    -0.53000
C50         C  0.99558736  0.58536448  0.59910472     0.87100
O51         O  0.04313698  0.63013012  0.67159975    -0.54800
O52         O  0.98293498  0.56312416  0.68758376    -0.58100
In53       In  0.65337417  0.60352220  0.67382686     1.36900
C54         C  0.71333994  0.60903341  0.66171423     0.79600
O55         O  0.66829758  0.60629928  0.72241225    -0.58900
O56         O  0.62372046  0.56116275  0.70823622    -0.49800
C57         C  0.64456284  0.65608866  0.68241390     0.72200
O58         O  0.67297872  0.65883658  0.67700164    -0.44700
C59         C  0.62217716  0.58002103  0.62022913     0.76900
O60         O  0.71008869  0.63437988  0.66612988    -0.56500
O61         O  0.61285922  0.56129286  0.64363239    -0.46600
O62         O  0.68558415  0.58078788  0.66286039    -0.53000
C63         C  0.64474332  0.57689364  0.72954196     0.87100
O64         O  0.61977145  0.62569116  0.68381668    -0.54800
O65         O  0.64654890  0.60988032  0.62480527    -0.58100
In66       In  0.64979547  0.93498240  0.66350210     1.36900
C67         C  0.71063680  0.98778824  0.64994185     0.79600
O68         O  0.62776397  0.91002820  0.61873634    -0.58900
O69         O  0.61843258  0.94861387  0.63317626    -0.49800
C70         C  0.64515238  0.87545750  0.67219733     0.72200
O71         O  0.66830376  0.89908074  0.65645325    -0.44700
C72         C  0.64136863  0.95602677  0.71752463     0.76900
O73         O  0.70689427  0.96097800  0.66179705    -0.56500
O74         O  0.61599149  0.93726548  0.70063410    -0.46600
O75         O  0.68310943  0.98666130  0.64366329    -0.53000
C76         C  0.61609875  0.92883550  0.61203504     0.87100
O77         O  0.62424916  0.88252158  0.68404811    -0.54800
O78         O  0.66961542  0.96233127  0.70695426    -0.58100
In79       In  0.32563736  0.93626019  0.32673126     1.36900
C80         C  0.26607487  0.88533825  0.34599996     0.79600
O81         O  0.30322592  0.91225736  0.28201922    -0.58900
O82         O  0.35667449  0.93457919  0.28658046    -0.49800
C83         C  0.33048086  0.99582500  0.31832877     0.72200
O84         O  0.30236077  0.96832099  0.32145353    -0.44700
C85         C  0.36274401  0.94232782  0.37607533     0.76900
O86         O  0.27254782  0.91559094  0.34499537    -0.56500
O87         O  0.35885851  0.92233067  0.35455006    -0.46600
O88         O  0.29089487  0.88175971  0.33897739    -0.53000
C89         C  0.33062835  0.91816257  0.26980977     0.87100
O90         O  0.35644911  0.99267909  0.31841772    -0.54800
O91         O  0.34940081  0.96005663  0.37124713    -0.58100
In92       In  0.98470905  0.61896361  0.32280871     1.36900
C93         C  0.03652757  0.67806330  0.34173323     0.79600
O94         O  0.96640731  0.60745017  0.37081995    -0.58900
O95         O  0.99051381  0.58194888  0.35294254    -0.49800
C96         C  0.92159420  0.60595054  0.31161865     0.72200
O97         O  0.94614540  0.63480562  0.31909085    -0.44700
C98         C  0.00935625  0.61473808  0.26838202     0.76900
O99         O  0.00970119  0.67526378  0.33051301    -0.56500
O100        O  0.99813847  0.59094154  0.28774201    -0.46600
O101        O  0.03655942  0.65059649  0.34321908    -0.53000
C102        C  0.97757048  0.58781566  0.37592838     0.87100
O103        O  0.92951672  0.58330048  0.30915911    -0.54800
O104        O  0.00684042  0.63965385  0.27678001    -0.58100
In105      In  0.64820971  0.60415648  0.34601987     1.36900
C106        C  0.67099349  0.66945541  0.35943408     0.79600
O107        O  0.62052560  0.57090326  0.30459997    -0.58900
O108        O  0.61610185  0.61361141  0.31316071    -0.49800
C109        C  0.69781216  0.59283889  0.32935077     0.72200
O110        O  0.69699558  0.61886725  0.32126201    -0.44700
C111        C  0.62330130  0.57346855  0.39965756     0.76900
O112        O  0.68975418  0.65973631  0.34756395    -0.56500
O113        O  0.60406894  0.56915659  0.37722239    -0.46600
O114        O  0.64127454  0.64555138  0.36566599    -0.53000
C115        C  0.60954637  0.58957446  0.29529217     0.87100
O116        O  0.67305646  0.57248608  0.34595907    -0.54800
O117        O  0.65468865  0.59225773  0.39408606    -0.58100
In118      In  0.32362762  0.26988218  0.33001416     1.36900
C119        C  0.26495356  0.25765763  0.35305949     0.79600
O120        O  0.35264760  0.27127081  0.37136154    -0.58900
O121        O  0.35563778  0.31722659  0.35883149    -0.49800
C122        C  0.32811371  0.21459745  0.32286254     0.72200
O123        O  0.30447579  0.21508242  0.33717356    -0.44700
C124        C  0.32323690  0.29566753  0.27524394     0.76900
O125        O  0.26784013  0.23547443  0.33854911    -0.56500
O126        O  0.35083499  0.30493532  0.28947540    -0.46600
O127        O  0.29234069  0.28583744  0.35609482    -0.53000
C128        C  0.36225023  0.30143789  0.37864235     0.87100
O129        O  0.34971109  0.24290473  0.31104745    -0.54800
O130        O  0.29712808  0.27332019  0.28889252    -0.58100
In131      In  0.00332726  0.27171550  0.33980434     1.36900
C132        C  0.05394238  0.26488071  0.35958336     0.79600
O133        O  0.02889453  0.27430831  0.29603567    -0.58900
O134        O  0.00944393  0.30729205  0.30082768    -0.49800
C135        C  0.94267257  0.21863032  0.32775878     0.72200
O136        O  0.96885666  0.21653332  0.33209156    -0.44700
C137        C  0.99515827  0.29713585  0.39140175     0.76900
O138        O  0.02444572  0.23960473  0.35499408    -0.56500
O139        O  0.01284292  0.31628175  0.36971222    -0.46600
O140        O  0.05679166  0.29349152  0.35523416    -0.53000
C141        C  0.02510334  0.29710052  0.28417480     0.87100
O142        O  0.94762806  0.24843683  0.32900268    -0.54800
O143        O  0.98079584  0.26585463  0.38559131    -0.58100
In144      In  0.66715799  0.93803841  0.34068080     1.36900
C145        C  0.68613394  0.89276735  0.34913196     0.79600
O146        O  0.62315317  0.93095062  0.37044697    -0.58900
O147        O  0.67362536  0.95981560  0.38724989    -0.49800
C148        C  0.72187215  0.99757819  0.32884591     0.72200
O149        O  0.72304137  0.97173559  0.33667534    -0.44700
C150        C  0.62819352  0.91202987  0.29125680     0.76900
O151        O  0.69377751  0.91092151  0.32557929    -0.56500
O152        O  0.62753318  0.89421000  0.31334651    -0.46600
O153        O  0.66996447  0.89873579  0.36908129    -0.53000
C154        C  0.64236501  0.94747854  0.39251359     0.87100
O155        O  0.69211057  0.99268710  0.32590625    -0.54800
O156        O  0.64619585  0.94367500  0.29582933    -0.58100
C157        C  0.54036417  0.82005599  0.07799483    -0.00500
C158        C  0.32176663  0.82365898  0.05660157    -0.00500
C159        C  0.09182002  0.59397858  0.05761307    -0.00500
C160        C  0.08899852  0.36605784  0.06290959    -0.00500
C161        C  0.32031947  0.37281462  0.05866770    -0.00500
C162        C  0.54957987  0.59587446  0.07335764    -0.00500
C163        C  0.87598684  0.48056917  0.92047862    -0.00500
C164        C  0.87124378  0.25999465  0.93146930    -0.00500
C165        C  0.41888387  0.03610480  0.91968141    -0.00500
C166        C  0.63842647  0.02948614  0.93541916    -0.00500
C167        C  0.65364105  0.49073795  0.94183128    -0.00500
C168        C  0.42253880  0.26517193  0.91791561    -0.00500
C169        C  0.51784620  0.32484490  0.94563856     0.14600
C170        C  0.52427538  0.35700388  0.93651575     0.01600
C171        C  0.49786042  0.35919745  0.92259277     0.16600
C172        C  0.46606143  0.33003825  0.91704966     0.26000
C173        C  0.45905795  0.29688249  0.92500352    -0.40300
C174        C  0.48557365  0.29533618  0.94081163     0.33000
C175        C  0.55809810  0.38873448  0.94165491     0.01700
F176        F  0.50310417  0.38989491  0.91356755    -0.12600
F177        F  0.48050434  0.26592128  0.95301939    -0.13200
C178        C  0.58710089  0.39496394  0.92527100     0.16600
C179        C  0.61757745  0.42679113  0.92684524     0.26000
C180        C  0.62049629  0.45404161  0.94499203    -0.40300
C181        C  0.59011286  0.44708259  0.96085147     0.33000
C182        C  0.56025524  0.41485419  0.95990249     0.14700
F183        F  0.58531720  0.37082549  0.90608309    -0.12600
F184        F  0.58670783  0.47167777  0.97454380    -0.13200
F185        F  0.64398484  0.43134850  0.90917661    -0.15400
F186        F  0.53231383  0.40979292  0.97555642    -0.14000
F187        F  0.54262044  0.32208084  0.96013474    -0.14000
F188        F  0.44256310  0.33446348  0.90222856    -0.15400
C189        C  0.38486152  0.09884612  0.92712329     0.14600
C190        C  0.41478917  0.13097115  0.93071840     0.01600
C191        C  0.44577509  0.13164093  0.93444661     0.16600
C192        C  0.44764176  0.10207357  0.93167995     0.26000
C193        C  0.41776281  0.06926861  0.92773924    -0.40300
C194        C  0.38626652  0.06869293  0.92606722     0.33000
C195        C  0.41503599  0.16413199  0.92791680     0.01700
F196        F  0.47519724  0.16168678  0.93952931    -0.12600
F197        F  0.35657704  0.03877108  0.92172991    -0.13200
C198        C  0.39229901  0.17077345  0.94401827     0.16600
C199        C  0.39395428  0.20245438  0.94141646     0.26000
C200        C  0.41987115  0.22969205  0.92377916    -0.40300
C201        C  0.44176853  0.22188498  0.90711713     0.33000
C202        C  0.43891469  0.18994055  0.90867264     0.14700
F203        F  0.36811818  0.14649504  0.96234143    -0.12600
F204        F  0.46645175  0.24543964  0.88873914    -0.13200
F205        F  0.36867693  0.20502169  0.95498584    -0.15400
F206        F  0.45936134  0.18403371  0.89039107    -0.14000
F207        F  0.35424695  0.09654235  0.92285098    -0.14000
F208        F  0.47960976  0.10713562  0.93008912    -0.15400
C209        C  0.50053574  0.04896788  0.96048450     0.14600
C210        C  0.51750693  0.04214488  0.93755456     0.01600
C211        C  0.50465100  0.03668058  0.90782108     0.16600
C212        C  0.47365248  0.03459923  0.90136718     0.26000
C213        C  0.45557730  0.04129693  0.92418893    -0.40300
C214        C  0.47033307  0.04886079  0.95394423     0.33000
C215        C  0.54663146  0.03718419  0.94426038     0.01700
F216        F  0.52141870  0.03133944  0.88491007    -0.12600
F217        F  0.45502673  0.05563561  0.97712810    -0.13200
C218        C  0.54418284  0.00643504  0.93596991     0.16600
C219        C  0.57314481  0.00350538  0.93550801     0.26000
C220        C  0.60592504  0.03166140  0.94295768    -0.40300
C221        C  0.60650443  0.05994160  0.95715565     0.33000
C222        C  0.57748200  0.06318189  0.95659557     0.14700
F223        F  0.51385414  0.97965798  0.92648481    -0.12600
F224        F  0.63465870  0.08456958  0.97169748    -0.13200
F225        F  0.56944802  0.97402091  0.92469879    -0.15400
F226        F  0.58001819  0.09234925  0.96693849    -0.14000
F227        F  0.51231923  0.05428505  0.98956695    -0.14000
F228        F  0.46065518  0.02248701  0.87337556    -0.15400
C229        C  0.70971720  0.12522878  0.92926979     0.14600
C230        C  0.73845541  0.12738737  0.94345988     0.01600
C231        C  0.73394017  0.09750802  0.95734750     0.16600
C232        C  0.70186663  0.06661138  0.95683923     0.26000
C233        C  0.67320247  0.06401350  0.94122741    -0.40300
C234        C  0.67881465  0.09416339  0.92656722     0.33000
C235        C  0.77306540  0.16010609  0.94135200     0.01700
F236        F  0.76108887  0.09752720  0.97007315    -0.12600
F237        F  0.65389235  0.09396757  0.90952550    -0.13200
C238        C  0.79504276  0.17495000  0.96663973     0.16600
C239        C  0.82683938  0.20597179  0.96393366     0.26000
C240        C  0.83766307  0.22390145  0.93578424    -0.40300
C241        C  0.81408814  0.20938692  0.91121426     0.33000
C242        C  0.78379270  0.17770494  0.91352083     0.14700
F243        F  0.78517188  0.16024848  0.99449077    -0.12600
F244        F  0.82073525  0.22526033  0.88389287    -0.13200
F245        F  0.84582600  0.21895592  0.98954859    -0.15400
F246        F  0.76497436  0.16405513  0.88784921    -0.14000
F247        F  0.71143041  0.15348070  0.91747401    -0.14000
F248        F  0.70023597  0.03888296  0.96966636    -0.15400
C249        C  0.79488767  0.49060677  0.91067185     0.14600
C250        C  0.78286064  0.48780036  0.94057678     0.01600
C251        C  0.80063175  0.48191654  0.96373792     0.16600
C252        C  0.83011622  0.47999961  0.95722254     0.26000
C253        C  0.84394502  0.48489348  0.92728481    -0.40300
C254        C  0.82403721  0.48855968  0.90395309     0.33000
C255        C  0.75128660  0.49012879  0.94669156     0.01700
F256        F  0.78955859  0.47815548  0.99294259    -0.12600
F257        F  0.83010087  0.48707623  0.87394507    -0.13200
C258        C  0.72103510  0.46266321  0.95880808     0.16600
C259        C  0.69029575  0.46335715  0.96003126     0.26000
C260        C  0.68831318  0.49123496  0.94799834    -0.40300
C261        C  0.72023505  0.52062315  0.94056268     0.33000
C262        C  0.75062421  0.51957227  0.93875320     0.14700
F263        F  0.72077092  0.43437099  0.96846800    -0.12600
F264        F  0.72161621  0.54968863  0.93184133    -0.13200
F265        F  0.66283618  0.43661709  0.97339533    -0.15400
F266        F  0.77945164  0.54732046  0.92820193    -0.14000
F267        F  0.77701207  0.49344183  0.88725873    -0.14000
F268        F  0.84517149  0.47309436  0.98053470    -0.15400
C269        C  0.87050268  0.39877053  0.95468433     0.14600
C270        C  0.84576087  0.37307496  0.93596446     0.01600
C271        C  0.82639434  0.38133962  0.91678086     0.16600
C272        C  0.83476499  0.41532240  0.91334239     0.26000
C273        C  0.86310459  0.44234929  0.92892953    -0.40300
C274        C  0.87785695  0.43239508  0.95239187     0.33000
C275        C  0.84341498  0.33926624  0.93401941     0.01700
F276        F  0.80018088  0.35660840  0.90028198    -0.12600
F277        F  0.89918439  0.45448535  0.97377918    -0.13200
C278        C  0.84018118  0.32011085  0.96016550     0.16600
C279        C  0.84612795  0.29285294  0.95869687     0.26000
C280        C  0.85708787  0.28496590  0.93119290    -0.40300
C281        C  0.85383987  0.30043463  0.90430571     0.33000
C282        C  0.84834745  0.32781614  0.90591269     0.14700
F283        F  0.83278940  0.32875198  0.98747627    -0.12600
F284        F  0.85646824  0.28995314  0.87609542    -0.13200
F285        F  0.84493461  0.27681453  0.98501885    -0.15400
F286        F  0.85004754  0.34453564  0.87984177    -0.14000
F287        F  0.88905544  0.39178547  0.97439524    -0.14000
F288        F  0.81686682  0.42193266  0.89262256    -0.15400
C289        C  0.65042973  0.56922239  0.97434195     0.14600
C290        C  0.63661712  0.55751066  0.00352375     0.01600
C291        C  0.63732935  0.52880318  0.01466070     0.16600
C292        C  0.64787626  0.51068625  0.99599246     0.26000
C293        C  0.65376331  0.51780058  0.96446630    -0.40300
C294        C  0.65879225  0.54991634  0.95514103     0.33000
C295        C  0.62003212  0.57389145  0.02125664     0.01700
F296        F  0.62494684  0.51605143  0.04270725    -0.12600
F297        F  0.67207246  0.56339221  0.92749525    -0.13200
C298        C  0.59822947  0.58316673  0.00687563     0.16600
C299        C  0.57967379  0.59457237  0.02377330     0.26000
C300        C  0.57949852  0.59449570  0.05611185    -0.40300
C301        C  0.60274018  0.58631640  0.07022548     0.33000
C302        C  0.62365664  0.57819468  0.05300844     0.14700
F303        F  0.59276846  0.57905695  0.97638462    -0.12600
F304        F  0.60368857  0.58240215  0.10066704    -0.13200
F305        F  0.55915280  0.60277226  0.00825521    -0.15400
F306        F  0.64688111  0.57335805  0.06798593    -0.14000
F307        F  0.65580631  0.59956761  0.96408232    -0.14000
F308        F  0.64699098  0.48280934  0.00770791    -0.15400
C309        C  0.31980634  0.31302112  0.99297836     0.14600
C310        C  0.35142174  0.31485194  0.99780736     0.01600
C311        C  0.37196571  0.33564818  0.02176511     0.16600
C312        C  0.36068498  0.35195878  0.04132832     0.26000
C313        C  0.32947709  0.35138563  0.03645038    -0.40300
C314        C  0.30982701  0.33223382  0.01084171     0.33000
C315        C  0.36438416  0.29711244  0.97739117     0.01700
F316        F  0.40396385  0.34129312  0.02607069    -0.12600
F317        F  0.28118529  0.33199582  0.00219100    -0.13200
C318        C  0.36219981  0.29813986  0.94553041     0.16600
C319        C  0.37819821  0.28586564  0.92636075     0.26000
C320        C  0.39816671  0.27239515  0.93816919    -0.40300
C321        C  0.40033467  0.27186633  0.97036873     0.33000
C322        C  0.38245785  0.28222935  0.98939822     0.14700
F323        F  0.34681317  0.31368136  0.93239415    -0.12600
F324        F  0.42058439  0.26181991  0.98372982    -0.13200
F325        F  0.37676305  0.29133890  0.89622231    -0.15400
F326        F  0.38354251  0.27821576  0.01992057    -0.14000
F327        F  0.29809742  0.29238837  0.97098027    -0.14000
F328        F  0.38087025  0.36844019  0.06560673    -0.15400
C329        C  0.45927188  0.53448351  0.03690832     0.14600
C330        C  0.45318840  0.50279073  0.04712270     0.01600
C331        C  0.48094360  0.50108271  0.05887427     0.16600
C332        C  0.51189763  0.53072366  0.06568039     0.26000
C333        C  0.51655978  0.56347817  0.06045549    -0.40300
C334        C  0.49109059  0.56428429  0.04216918     0.33000
C335        C  0.41785942  0.47232923  0.04978837     0.01700
F336        F  0.47727019  0.47046139  0.06581732    -0.12600
F337        F  0.49652002  0.59339322  0.02889700    -0.13200
C338        C  0.39552209  0.45757773  0.02493026     0.16600
C339        C  0.36402357  0.42676919  0.02839142     0.26000
C340        C  0.35333977  0.40976053  0.05701241    -0.40300
C341        C  0.37688462  0.42550770  0.08167353     0.33000
C342        C  0.40737590  0.45646736  0.07819142     0.14700
F343        F  0.40466346  0.47211450  0.99696877    -0.12600
F344        F  0.37389037  0.40988456  0.10859884    -0.13200
F345        F  0.34409263  0.41291491  0.00333681    -0.15400
F346        F  0.42799067  0.47020043  0.10291903    -0.14000
F347        F  0.43410446  0.53694318  0.02285663    -0.14000
F348        F  0.53624567  0.52716702  0.08002274    -0.15400
C349        C  0.99453822  0.29835572  0.03833462     0.14600
C350        C  0.99539172  0.30488155  0.00717969     0.01600
C351        C  0.02722518  0.32702112  0.99373287     0.16600
C352        C  0.05732389  0.34370384  0.01140399     0.26000
C353        C  0.05680205  0.33948414  0.04352959    -0.40300
C354        C  0.02418476  0.31543871  0.05636507     0.33000
C355        C  0.96264257  0.29244327  0.98992733     0.01700
F356        F  0.02898836  0.33373547  0.96347908    -0.12600
F357        F  0.01885793  0.31077296  0.08673232    -0.13200
C358        C  0.95065894  0.31463645  0.98455660     0.16600
C359        C  0.92061726  0.30429986  0.96784296     0.26000
C360        C  0.90019005  0.27031892  0.95628577    -0.40300
C361        C  0.91251772  0.24799530  0.96273585     0.33000
C362        C  0.94296281  0.25882691  0.97934144     0.14700
F363        F  0.96883433  0.34720587  0.99491890    -0.12600
F364        F  0.89569283  0.21562378  0.95201726    -0.13200
F365        F  0.91393383  0.32924579  0.96137195    -0.15400
F366        F  0.95380275  0.23660165  0.98424830    -0.14000
F367        F  0.96407376  0.27738072  0.05203670    -0.14000
F368        F  0.08697017  0.36594592  0.99718215    -0.15400
C369        C  0.22247427  0.33982664  0.05233364     0.14600
C370        C  0.22095767  0.36926467  0.04675982     0.01600
C371        C  0.25212480  0.39993291  0.04222500     0.16600
C372        C  0.28380250  0.40175052  0.04525773     0.26000
C373        C  0.28593728  0.37212067  0.05076661    -0.40300
C374        C  0.25399553  0.34107970  0.05389158     0.33000
C375        C  0.18751912  0.36877341  0.04871482     0.01700
F376        F  0.25214394  0.42897702  0.03583010    -0.12600
F377        F  0.25314147  0.31160339  0.06001206    -0.13200
C378        C  0.18494190  0.39223267  0.06747527     0.16600
C379        C  0.15397992  0.39144571  0.07086411     0.26000
C380        C  0.12352038  0.36715780  0.05552864    -0.40300
C381        C  0.12606928  0.34275124  0.03736752     0.33000
C382        C  0.15758796  0.34409820  0.03359318     0.14700
F383        F  0.21230714  0.41545350  0.08391900    -0.12600
F384        F  0.09804463  0.31602781  0.02459210    -0.13200
F385        F  0.15408021  0.41502933  0.08963045    -0.15400
F386        F  0.15862362  0.32080464  0.01518245    -0.14000
F387        F  0.19337492  0.30981254  0.05813891    -0.14000
F388        F  0.31172037  0.43347457  0.04509056    -0.15400
C389        C  0.03509376  0.58578897  0.98593691     0.14600
C390        C  0.00263221  0.55895249  0.99475073     0.01600
C391        C  0.99973459  0.54372790  0.02310297     0.16600
C392        C  0.02817201  0.55505425  0.04236830     0.26000
C393        C  0.06106524  0.58307583  0.03462473    -0.40300
C394        C  0.06389905  0.59754147  0.00526095     0.33000
C395        C  0.97244541  0.54382117  0.97341797     0.01700
F396        F  0.96920572  0.51684046  0.03190786    -0.12600
F397        F  0.09457400  0.62168011  0.99398724    -0.13200
C398        C  0.96995711  0.52146099  0.95045639     0.16600
C399        C  0.93984616  0.50284675  0.93330423     0.26000
C400        C  0.91026103  0.50545065  0.93847352    -0.40300
C401        C  0.91464352  0.53108484  0.95952679     0.33000
C402        C  0.94480803  0.54907904  0.97727172     0.14700
F403        F  0.99634586  0.51624162  0.94557792    -0.12600
F404        F  0.89053967  0.53974110  0.96289626    -0.13200
F405        F  0.93900138  0.48015371  0.91291772    -0.15400
F406        F  0.94701205  0.57180199  0.99838418    -0.14000
F407        F  0.03914415  0.60028740  0.95812691    -0.14000
F408        F  0.02313890  0.53858822  0.06925669    -0.15400
C409        C  0.08795833  0.50900840  0.08180740     0.14600
C410        C  0.09684688  0.49916849  0.05472321     0.01600
C411        C  0.10545245  0.52072568  0.02936317     0.16600
C412        C  0.10471794  0.55109540  0.03099763     0.26000
C413        C  0.09532880  0.56131772  0.05815481    -0.40300
C414        C  0.08567700  0.53835799  0.08326693     0.33000
C415        C  0.09429159  0.46515083  0.05280954     0.01700
F416        F  0.11325167  0.51174184  0.00244498    -0.12600
F417        F  0.07076373  0.54155452  0.10870092    -0.13200
C418        C  0.06427171  0.43569879  0.06232894     0.16600
C419        C  0.06268187  0.40442225  0.06447486     0.26000
C420        C  0.09086605  0.40083276  0.05621571    -0.40300
C421        C  0.11892888  0.42960919  0.04205653     0.33000
C422        C  0.12135579  0.46156790  0.04205738     0.14700
F423        F  0.03633666  0.43727869  0.07033153    -0.12600
F424        F  0.14394215  0.42738110  0.02751027    -0.13200
F425        F  0.03399428  0.37804235  0.07674205    -0.15400
F426        F  0.15071639  0.48920834  0.03219790    -0.14000
F427        F  0.08014224  0.48929197  0.10708749    -0.14000
F428        F  0.11289211  0.57052386  0.00555060    -0.15400
C429        C  0.31742438  0.88655390  0.99740786     0.14600
C430        C  0.35047375  0.91530388  0.00005504     0.01600
C431        C  0.37305210  0.91429755  0.02089958     0.16600
C432        C  0.36343964  0.88509708  0.03817952     0.26000
C433        C  0.33047396  0.85501308  0.03540090    -0.40300
C434        C  0.30719289  0.85707617  0.01518026     0.33000
C435        C  0.36333689  0.94501766  0.97895204     0.01700
F436        F  0.40526386  0.94151130  0.02384435    -0.12600
F437        F  0.27417825  0.83154269  0.01302632    -0.13200
C438        C  0.36592298  0.97582721  0.98779303     0.16600
C439        C  0.38189551  0.00486163  0.96879532     0.26000
C440        C  0.39666311  0.00409510  0.94049343    -0.40300
C441        C  0.39458568  0.97277573  0.93274577     0.33000
C442        C  0.37752374  0.94385071  0.95113789     0.14700
F443        F  0.35417091  0.97822860  0.01551544    -0.12600
F444        F  0.40934874  0.96996752  0.90695636    -0.13200
F445        F  0.38500568  0.03406578  0.97960957    -0.15400
F446        F  0.37616437  0.91473475  0.94228345    -0.14000
F447        F  0.29489621  0.88706092  0.97752393    -0.14000
F448        F  0.38741669  0.88610113  0.05713354    -0.15400
C449        C  0.15712209  0.69044901  0.04252473     0.14600
C450        C  0.18898033  0.69268604  0.04208426     0.01600
C451        C  0.18951629  0.66240788  0.04444756     0.16600
C452        C  0.15912319  0.63067583  0.04832843     0.26000
C453        C  0.12630740  0.62771210  0.04869046    -0.40300
C454        C  0.12653956  0.65882512  0.04559615     0.33000
C455        C  0.22154047  0.72664126  0.04456790     0.01700
F456        F  0.22000694  0.66382818  0.04532634    -0.24600
F457        F  0.09688833  0.65896148  0.04658466    -0.13200
C458        C  0.23098573  0.74284751  0.07288818     0.16600
C459        C  0.26239993  0.77311425  0.07712506     0.26000
C460        C  0.28519103  0.79046056  0.05230152    -0.40300
C461        C  0.27551066  0.77310664  0.02381404     0.33000
C462        C  0.24434310  0.74179824  0.02008819     0.14700
F463        F  0.21039725  0.72800193  0.09736721    -0.12600
F464        F  0.29670989  0.78616128  0.99948264    -0.13200
F465        F  0.27111442  0.78275555  0.10651006    -0.15400
F466        F  0.23667162  0.72602515  0.99257827    -0.14000
F467        F  0.15564222  0.71929921  0.04115348    -0.14000
F468        F  0.16304743  0.60390631  0.05461700    -0.15400
C469        C  0.60720232  0.91057818  0.04397377     0.14600
C470        C  0.59476024  0.90831443  0.01437823     0.01600
C471        C  0.56754192  0.87641168  0.00477513     0.16600
C472        C  0.55343999  0.84794561  0.02421519     0.26000
C473        C  0.56363050  0.85046569  0.05529927    -0.40300
C474        C  0.59091857  0.88343552  0.06450537     0.33000
C475        C  0.60916561  0.93958874  0.99447441     0.01700
F476        F  0.55286016  0.87290708  0.97706693    -0.12600
F477        F  0.60117900  0.89194444  0.09365925    -0.13200
C478        C  0.61544571  0.93806264  0.96342411     0.16600
C479        C  0.62477959  0.96587951  0.94409680     0.26000
C480        C  0.63290098  0.99848197  0.95568832    -0.40300
C481        C  0.62918873  0.00023791  0.98761404     0.33000
C482        C  0.61583801  0.97116016  0.00616154     0.14700
F483        F  0.61125965  0.90892041  0.95113887    -0.12600
F484        F  0.63573332  0.02985850  0.00071287    -0.13200
F485        F  0.62187033  0.95854216  0.91400889    -0.15400
F486        F  0.60757450  0.97371435  0.03534175    -0.14000
F487        F  0.63483362  0.94001298  0.05384060    -0.14000
F488        F  0.52762758  0.81806749  0.01297677    -0.15400
C489        C  0.51884800  0.66130352  0.07757893     0.14600
C490        C  0.54716639  0.69240479  0.06792360     0.01600
C491        C  0.57631696  0.69157145  0.05813234     0.16600
C492        C  0.57684669  0.66085882  0.05761848     0.26000
C493        C  0.54882926  0.62978190  0.06864811    -0.40300
C494        C  0.52053243  0.63159949  0.07988124     0.33000
C495        C  0.54642569  0.72533486  0.06974285     0.01700
F496        F  0.60533983  0.72088435  0.05052057    -0.12600
F497        F  0.49348899  0.60394983  0.09276513    -0.13200
C498        C  0.53126757  0.73182590  0.09480063     0.16600
C499        C  0.52779312  0.76057243  0.09580907     0.26000
C500        C  0.54283989  0.78690763  0.07356196    -0.40300
C501        C  0.56038988  0.78138604  0.04943860     0.33000
C502        C  0.56041610  0.75053358  0.04682733     0.14700
F503        F  0.52021564  0.71062605  0.11918761    -0.12600
F504        F  0.57774348  0.80523767  0.02788099    -0.13200
F505        F  0.50953525  0.76254480  0.11928405    -0.15400
F506        F  0.57372326  0.74524084  0.02123355    -0.14000
F507        F  0.48887632  0.65923582  0.08481729    -0.14000
F508        F  0.60624029  0.66275376  0.04866581    -0.15400
C509        C  0.46497121  0.83597451  0.06810353     0.14600
C510        C  0.43783089  0.80451510  0.05832379     0.01600
C511        C  0.44326602  0.77725844  0.05467984     0.16600
C512        C  0.47538931  0.78120375  0.06086562     0.26000
C513        C  0.50319683  0.81284137  0.07162212    -0.40300
C514        C  0.49707395  0.84032093  0.07416539     0.33000
C515        C  0.40403197  0.80089883  0.05228150     0.01700
F516        F  0.41756511  0.74684403  0.04426447    -0.12600
F517        F  0.52216482  0.87153101  0.08371869    -0.13200
C518        C  0.40029336  0.81897015  0.02838068     0.16600
C519        C  0.37172475  0.82276530  0.02699533     0.26000
C520        C  0.34761221  0.81108571  0.05125364    -0.40300
C521        C  0.34832375  0.78723694  0.07151140     0.33000
C522        C  0.37667497  0.78291025  0.07243363     0.14700
F523        F  0.42510899  0.83414496  0.00694047    -0.12600
F524        F  0.32402118  0.77166480  0.09324034    -0.13200
F525        F  0.36844299  0.83829182  0.00202179    -0.15400
F526        F  0.37883652  0.76371653  0.09486590    -0.14000
F527        F  0.46013567  0.86260325  0.07243920    -0.14000
F528        F  0.47882627  0.75411873  0.05468019    -0.15400
C529        C  0.59080915  0.85005898  0.22535055     0.14600
C530        C  0.58615836  0.86945693  0.20333800     0.01600
C531        C  0.59344705  0.90240483  0.21082991     0.16600
C532        C  0.60648420  0.91622778  0.23966277     0.26000
C533        C  0.61142699  0.89685851  0.26174524    -0.40300
C534        C  0.60302021  0.86343983  0.25434084     0.33000
C535        C  0.57376207  0.85519216  0.17254793     0.01700
F536        F  0.58865041  0.92143662  0.18996382    -0.12600
F537        F  0.60790385  0.84405017  0.27473073    -0.13200
C538        C  0.54031311  0.84469063  0.16391656     0.16600
C539        C  0.52842752  0.83164752  0.13476541     0.26000
C540        C  0.55069814  0.83076122  0.11229168    -0.40300
C541        C  0.58298985  0.83731602  0.12301470     0.33000
C542        C  0.59463387  0.85029039  0.15234672     0.14700
F543        F  0.51850804  0.84580668  0.18431136    -0.12600
F544        F  0.60463255  0.83400501  0.10404127    -0.13200
F545        F  0.49438315  0.81758393  0.13022604    -0.15400
F546        F  0.62681201  0.85909195  0.16075687    -0.14000
F547        F  0.58363318  0.81808845  0.21863984    -0.14000
F548        F  0.61456841  0.94860514  0.24584568    -0.15400
C549        C  0.87520677  0.12949653  0.30561897     0.14600
C550        C  0.84543104  0.12772607  0.31663949     0.01600
C551        C  0.84737107  0.15677113  0.32950737     0.16600
C552        C  0.87898515  0.18695376  0.33222600     0.26000
C553        C  0.90895629  0.18827208  0.32227597    -0.40300
C554        C  0.90677700  0.15937982  0.30873787     0.33000
C555        C  0.81352736  0.09446551  0.31861789     0.01700
F556        F  0.81903427  0.15517538  0.34126712    -0.12600
F557        F  0.93532547  0.15984523  0.29910741    -0.13200
C558        C  0.81333371  0.06858936  0.33583575     0.16600
C559        C  0.78350500  0.03716926  0.33887122     0.26000
C560        C  0.75314939  0.03090650  0.32468532    -0.40300
C561        C  0.75315835  0.05685410  0.30750133     0.33000
C562        C  0.78326453  0.08854647  0.30451442     0.14700
F563        F  0.84197285  0.07413543  0.35055329    -0.12600
F564        F  0.72427729  0.05143725  0.29335533    -0.13200
F565        F  0.78414010  0.01327151  0.35669781    -0.15400
F566        F  0.78301692  0.11328650  0.28768641    -0.14000
F567        F  0.87379985  0.10175054  0.29286776    -0.14000
F568        F  0.88057223  0.21404244  0.34654415    -0.15400
C569        C  0.03327694  0.33237400  0.20442130     0.14600
C570        C  0.06018015  0.32917212  0.19247222     0.01600
C571        C  0.07639772  0.31694984  0.21130369     0.16600
C572        C  0.06547068  0.30745417  0.24135717     0.26000
C573        C  0.03807266  0.30997898  0.25318050    -0.40300
C574        C  0.02241576  0.32302417  0.23455232     0.33000
C575        C  0.07158717  0.33952900  0.16059347     0.01700
F576        F  0.10323642  0.31479555  0.20077022    -0.12600
F577        F  0.99585945  0.32563151  0.24510945    -0.13200
C578        C  0.08238723  0.37274940  0.15138195     0.16600
C579        C  0.08897707  0.38206400  0.12079758     0.26000
C580        C  0.08441625  0.35789174  0.09791277    -0.40300
C581        C  0.07856016  0.32594208  0.10843581     0.33000
C582        C  0.07108099  0.31652236  0.13914081     0.14700
F583        F  0.08706655  0.39662386  0.17234450    -0.12600
F584        F  0.07728196  0.30263435  0.08848918    -0.13200
F585        F  0.10167138  0.41546232  0.11464252    -0.15400
F586        F  0.06196241  0.28442445  0.14763362    -0.14000
F587        F  0.01696467  0.34384397  0.18656954    -0.14000
F588        F  0.08211304  0.29626112  0.25910625    -0.15400
C589        C  0.10735911  0.22664904  0.38172990     0.14600
C590        C  0.14034344  0.25389355  0.37529846     0.01600
C591        C  0.14469935  0.28515434  0.36569337     0.16600
C592        C  0.11662995  0.28911647  0.36236535     0.26000
C593        C  0.08344314  0.26153597  0.36745438    -0.40300
C594        C  0.07897111  0.23025109  0.37745977     0.33000
C595        C  0.17021883  0.24953088  0.37558800     0.01700
F596        F  0.17603297  0.31135398  0.35769693    -0.12600
F597        F  0.04724681  0.20305548  0.38252430    -0.13200
C598        C  0.17062601  0.22484214  0.35682379     0.16600
C599        C  0.20125849  0.22584509  0.35130661     0.26000
C600        C  0.23195580  0.25197203  0.36396960    -0.40300
C601        C  0.23102293  0.27497112  0.38463908     0.33000
C602        C  0.20028110  0.27347866  0.39064332     0.14700
F603        F  0.14208735  0.20169779  0.34161972    -0.12600
F604        F  0.26007258  0.29994665  0.39791308    -0.13200
F605        F  0.20119367  0.20296949  0.33153607    -0.15400
F606        F  0.20025486  0.29687845  0.40967854    -0.14000
F607        F  0.10260870  0.19637136  0.39149528    -0.14000
F608        F  0.12199282  0.31953325  0.35228632    -0.15400
C609        C  0.31293636  0.31846065  0.13034701     0.14600
C610        C  0.31254217  0.33888485  0.15386012     0.01600
C611        C  0.30874945  0.36653783  0.14658308     0.16600
C612        C  0.30836025  0.37541141  0.11605743     0.26000
C613        C  0.31412142  0.35810040  0.09194412    -0.40300
C614        C  0.31286756  0.32726112  0.09985579     0.33000
C615        C  0.31508155  0.33039076  0.18593157     0.01700
F616        F  0.30649636  0.38563684  0.16909883    -0.12600
F617        F  0.31008292  0.30441205  0.07864792    -0.13200
C618        C  0.34679256  0.34613128  0.20104228     0.16600
C619        C  0.34962168  0.33561842  0.23040472     0.26000
C620        C  0.32073238  0.30897293  0.24499724    -0.40300
C621        C  0.28871981  0.29444080  0.23012221     0.33000
C622        C  0.28606660  0.30492724  0.20087788     0.14700
F623        F  0.37512872  0.37118450  0.18704304    -0.12600
F624        F  0.25982703  0.26954691  0.24358339    -0.13200
F625        F  0.38058026  0.35140876  0.24440618    -0.15400
F626        F  0.25513053  0.28975093  0.18683881    -0.14000
F627        F  0.31348024  0.28975754  0.13696926    -0.14000
F628        F  0.30613419  0.40334394  0.11029574    -0.15400
C629        C  0.68637443  0.81261815  0.33143564     0.14600
C630        C  0.69756310  0.80632715  0.35910968     0.01600
C631        C  0.70793766  0.83028646  0.38281704     0.16600
C632        C  0.70577239  0.85955143  0.37923855     0.26000
C633        C  0.69309390  0.86493960  0.35201062    -0.40300
C634        C  0.68408532  0.84168193  0.32791965     0.33000
C635        C  0.69512596  0.77319163  0.36375131     0.01700
F636        F  0.71948540  0.82494846  0.40949243    -0.12600
F637        F  0.67072879  0.84587711  0.30178877    -0.13200
C638        C  0.71611708  0.76482754  0.34719938     0.16600
C639        C  0.70965695  0.73142905  0.34730955     0.26000
C640        C  0.68180740  0.70578856  0.36382133    -0.40300
C641        C  0.66217754  0.71486890  0.38193529     0.33000
C642        C  0.66880328  0.74830796  0.38185910     0.14700
F643        F  0.74199510  0.78876675  0.32991185    -0.12600
F644        F  0.63576730  0.69116744  0.39892268    -0.13200
F645        F  0.72930127  0.72381649  0.32969925    -0.15400
F646        F  0.64821536  0.75597083  0.39801998    -0.14000
F647        F  0.67575591  0.78955764  0.30840911    -0.14000
F648        F  0.71582676  0.88249135  0.40232540    -0.15400
C649        C  0.58706133  0.61759039  0.15549475     0.14600
C650        C  0.56292739  0.58986628  0.17270294     0.01600
C651        C  0.53194764  0.56620832  0.15900991     0.16600
C652        C  0.52599517  0.56891858  0.12803951     0.26000
C653        C  0.55227172  0.59408769  0.10905009    -0.40300
C654        C  0.58174536  0.61998397  0.12437289     0.33000
C655        C  0.57020136  0.58622147  0.20504774     0.01700
F656        F  0.50696945  0.54075651  0.17590111    -0.12600
F657        F  0.60709508  0.64637794  0.10868916    -0.13200
C658        C  0.56971109  0.60788712  0.22737956     0.16600
C659        C  0.58078346  0.60764811  0.25709421     0.26000
C660        C  0.59261739  0.58562343  0.26521260    -0.40300
C661        C  0.59127153  0.56253641  0.24313100     0.33000
C662        C  0.58018703  0.56290063  0.21332591     0.14700
F663        F  0.55928804  0.62997328  0.22014588    -0.12600
F664        F  0.60211308  0.54066940  0.24990141    -0.13200
F665        F  0.58099261  0.62995491  0.27762629    -0.15400
F666        F  0.58067915  0.54150889  0.19215454    -0.14000
F667        F  0.61658685  0.64189315  0.16865733    -0.14000
F668        F  0.49375733  0.54781894  0.11777247    -0.15400
C669        C  0.84766222  0.62132062  0.30658374     0.14600
C670        C  0.81924951  0.58809634  0.30508202     0.01600
C671        C  0.82467804  0.56050152  0.30354951     0.16600
C672        C  0.85802199  0.56615564  0.30450163     0.26000
C673        C  0.88641837  0.59946896  0.30720078    -0.40300
C674        C  0.88077584  0.62699875  0.30753089     0.33000
C675        C  0.78442856  0.58302661  0.30764103     0.01700
F676        F  0.79771984  0.52814031  0.30151109    -0.12600
F677        F  0.90727467  0.65959686  0.30958780    -0.13200
C678        C  0.77410846  0.60011151  0.28772005     0.16600
C679        C  0.74532046  0.60241893  0.29426347     0.26000
C680        C  0.72586025  0.58706427  0.32061531    -0.40300
C681        C  0.73460725  0.56762759  0.33920831     0.33000
C682        C  0.76369763  0.56569445  0.33283189     0.14700
F683        F  0.79284840  0.61583368  0.26250455    -0.12600
F684        F  0.71643447  0.55243463  0.36480701    -0.13200
F685        F  0.73688015  0.62024123  0.27513678    -0.15400
F686        F  0.77299081  0.54900093  0.35251180    -0.14000
F687        F  0.84330147  0.64846653  0.30871554    -0.14000
F688        F  0.86236576  0.53894627  0.30376120    -0.15400
C689        C  0.04729182  0.61282001  0.12498560     0.14600
C690        C  0.06593074  0.61247244  0.15017431     0.01600
C691        C  0.09546726  0.61088514  0.14507830     0.16600
C692        C  0.10493954  0.60763775  0.11532574     0.26000
C693        C  0.08342466  0.60284414  0.08994614    -0.40300
C694        C  0.05602723  0.60869705  0.09540819     0.33000
C695        C  0.05415903  0.61397023  0.18149334     0.01700
F696        F  0.11499131  0.61211664  0.16897027    -0.12600
F697        F  0.03806338  0.61199248  0.07243322    -0.13200
C698        C  0.04129988  0.58569139  0.20104441     0.16600
C699        C  0.02651401  0.58569441  0.22913994     0.26000
C700        C  0.02473706  0.61422977  0.23848714    -0.40300
C701        C  0.03833845  0.64279379  0.21900106     0.33000
C702        C  0.05271976  0.64255037  0.19086909     0.14700
F703        F  0.04192660  0.55752232  0.19243078    -0.12600
F704        F  0.03755234  0.67106883  0.22693338    -0.13200
F705        F  0.01333197  0.55746538  0.24686817    -0.15400
F706        F  0.06508320  0.67027486  0.17254154    -0.14000
F707        F  0.01993980  0.61668560  0.12906535    -0.14000
F708        F  0.13368812  0.60609086  0.11172153    -0.15400
C709        C  0.12197618  0.74173692  0.37552098     0.14600
C710        C  0.12901874  0.77158292  0.36028830     0.01600
C711        C  0.10345181  0.77163869  0.34248267     0.16600
C712        C  0.07216979  0.74148523  0.33803084     0.26000
C713        C  0.06629110  0.71088621  0.35109405    -0.40300
C714        C  0.09087538  0.71156875  0.37095073     0.33000
C715        C  0.16442641  0.80070296  0.35911131     0.01700
F716        F  0.10976148  0.80021604  0.32749273    -0.12600
F717        F  0.08534021  0.68280846  0.38511134    -0.13200
C718        C  0.18971170  0.79608213  0.34570724     0.16600
C719        C  0.22300691  0.82341224  0.34261579     0.26000
C720        C  0.23170691  0.85608204  0.35265396    -0.40300
C721        C  0.20641827  0.86069367  0.36645095     0.33000
C722        C  0.17294053  0.83310790  0.36960067     0.14700
F723        F  0.18169814  0.76526940  0.33424867    -0.12600
F724        F  0.21398303  0.89182508  0.37662329    -0.13200
F725        F  0.24624319  0.81809978  0.32821904    -0.15400
F726        F  0.14880411  0.83802888  0.38266355    -0.14000
F727        F  0.14602517  0.74149407  0.39360422    -0.14000
F728        F  0.04878388  0.74177353  0.31907499    -0.15400
C729        C  0.30423691  0.06103628  0.30631800     0.14600
C730        C  0.33369209  0.09120794  0.31571774     0.01600
C731        C  0.36272762  0.09014286  0.32464499     0.16600
C732        C  0.36215573  0.05926029  0.32464531     0.26000
C733        C  0.33237917  0.02892403  0.31584174    -0.40300
C734        C  0.30352465  0.03018183  0.30653132     0.33000
C735        C  0.33315534  0.12322348  0.31778260     0.01700
F736        F  0.39111948  0.11875178  0.33472142    -0.12600
F737        F  0.27442404  0.00146319  0.29771559    -0.13200
C738        C  0.30877992  0.12459232  0.33622053     0.16600
C739        C  0.30706590  0.15413345  0.33764280     0.26000
C740        C  0.33023563  0.18335830  0.32090753    -0.40300
C741        C  0.35527231  0.18221942  0.30306151     0.33000
C742        C  0.35656157  0.15230425  0.30131673     0.14700
F743        F  0.28675776  0.09727217  0.35329627    -0.12600
F744        F  0.37845919  0.20995828  0.28711660    -0.13200
F745        F  0.28287505  0.15407899  0.35570999    -0.15400
F746        F  0.38018710  0.15146026  0.28313490    -0.14000
F747        F  0.27601086  0.06146563  0.29715113    -0.14000
F748        F  0.39005416  0.05877814  0.33473993    -0.15400
C749        C  0.35932928  0.91095765  0.19014367     0.14600
C750        C  0.32972643  0.88195044  0.17884223     0.01600
C751        C  0.30092191  0.86506148  0.19777496     0.16600
C752        C  0.30150083  0.87699242  0.22720142     0.26000
C753        C  0.33108492  0.90585846  0.23865082    -0.40300
C754        C  0.36011613  0.92262235  0.21989973     0.33000
C755        C  0.32893377  0.86866578  0.14769344     0.01700
F756        F  0.27236744  0.83637744  0.18804401    -0.12600
F757        F  0.38886352  0.95083881  0.22999668    -0.13200
C758        C  0.35346042  0.86058278  0.13890565     0.16600
C759        C  0.35249788  0.84722756  0.11001918     0.26000
C760        C  0.32547359  0.83959871  0.08913287    -0.40300
C761        C  0.30213536  0.84999787  0.09784324     0.33000
C762        C  0.30351780  0.86365900  0.12672567     0.14700
F763        F  0.37866234  0.86551396  0.15850827    -0.12600
F764        F  0.27680197  0.84554614  0.07863516    -0.13200
F765        F  0.37983288  0.84453759  0.10253586    -0.15400
F766        F  0.27988635  0.87210066  0.13418522    -0.14000
F767        F  0.38723535  0.92846735  0.17210185    -0.14000
F768        F  0.27324154  0.85957569  0.24486705    -0.15400
C769        C  0.64366521  0.97041102  0.47533793     0.14600
C770        C  0.61026770  0.94624344  0.48446117     0.01600
C771        C  0.58605289  0.92609636  0.46219988     0.16600
C772        C  0.59570542  0.92840787  0.43157627     0.26000
C773        C  0.62994138  0.95043579  0.42290098    -0.40300
C774        C  0.65345933  0.97244464  0.44493177     0.33000
C775        C  0.60267935  0.93917850  0.51738444     0.01700
F776        F  0.55342995  0.90309644  0.47036228    -0.12600
F777        F  0.68656619  0.99473689  0.43747543    -0.13200
C778        C  0.60856440  0.96542125  0.53768592     0.16600
C779        C  0.60956444  0.96094954  0.56913874     0.26000
C780        C  0.60478705  0.93012476  0.58073903    -0.40300
C781        C  0.59590173  0.90292096  0.56053196     0.33000
C782        C  0.59492009  0.90743070  0.52913696     0.14700
F783        F  0.61565665  0.99616836  0.52690314    -0.12600
F784        F  0.59055499  0.87264136  0.57097957    -0.13200
F785        F  0.61861141  0.98790331  0.58786816    -0.15400
F786        F  0.58961456  0.88175780  0.51008989    -0.14000
F787        F  0.66765389  0.99027620  0.49628505    -0.14000
F788        F  0.57207158  0.90748567  0.41087131    -0.15400
C789        C  0.66445705  0.00634296  0.85916110     0.14600
C790        C  0.64093105  0.00593199  0.83829120     0.01600
C791        C  0.61926077  0.01736387  0.84773207     0.16600
C792        C  0.61901133  0.02645891  0.87806999     0.26000
C793        C  0.63993417  0.02322080  0.90046766    -0.40300
C794        C  0.66497879  0.01624768  0.88940246     0.33000
C795        C  0.63975018  0.99452034  0.80646463     0.01700
F796        F  0.59875061  0.02058186  0.82725395    -0.12600
F797        F  0.68786628  0.01548704  0.90865793    -0.13200
C798        C  0.60937221  0.96750425  0.79398425     0.16600
C799        C  0.60920863  0.95539324  0.76456045     0.26000
C800        C  0.63947713  0.97013601  0.74731305    -0.40300
C801        C  0.66930231  0.99826509  0.75939597     0.33000
C802        C  0.66941009  0.01022932  0.78860553     0.14700
F803        F  0.58020023  0.95206986  0.81070942    -0.12600
F804        F  0.69864080  0.01438313  0.74291806    -0.13200
F805        F  0.57989472  0.92857644  0.75348397    -0.15400
F806        F  0.69865706  0.03729082  0.79950935    -0.14000
F807        F  0.68606654  0.99566394  0.85060817    -0.14000
F808        F  0.59946981  0.04018026  0.88436373    -0.15400
C809        C  0.58862496  0.52760141  0.54777231     0.14600
C810        C  0.59426178  0.55319600  0.52675977     0.01600
C811        C  0.60360230  0.58567937  0.53763171     0.16600
C812        C  0.61021691  0.59344211  0.56850610     0.26000
C813        C  0.60738488  0.56880944  0.58935514    -0.40300
C814        C  0.59471086  0.53524527  0.57902908     0.33000
C815        C  0.59573595  0.54856275  0.49344708     0.01700
F816        F  0.60894254  0.61078537  0.51792676    -0.12600
F817        F  0.59050034  0.51053841  0.59872347    -0.13200
C818        C  0.57363665  0.55218170  0.47351487     0.16600
C819        C  0.58095504  0.55743737  0.44226059     0.26000
C820        C  0.61080316  0.55968313  0.43059127    -0.40300
C821        C  0.63141873  0.55344008  0.45023805     0.33000
C822        C  0.62388924  0.54785116  0.48134227     0.14700
F823        F  0.54637233  0.55310340  0.48472643    -0.12600
F824        F  0.65995747  0.55456727  0.43960174    -0.13200
F825        F  0.56061424  0.56350934  0.42400875    -0.15400
F826        F  0.64596928  0.54497637  0.50011174    -0.14000
F827        F  0.57858650  0.49569934  0.53787212    -0.14000
F828        F  0.62099053  0.62571914  0.57782995    -0.15400
C829        C  0.62149547  0.78831851  0.70249998     0.14600
C830        C  0.63896399  0.77897648  0.68207561     0.01600
C831        C  0.65801904  0.80117774  0.65833733     0.16600
C832        C  0.65977773  0.83236325  0.65509813     0.26000
C833        C  0.64275211  0.84215530  0.67575977    -0.40300
C834        C  0.62350630  0.81978591  0.69949856     0.33000
C835        C  0.63874787  0.74678087  0.68582620     0.01700
F836        F  0.67478377  0.79245825  0.63810903    -0.12600
F837        F  0.60731926  0.82865822  0.72019027    -0.13200
C838        C  0.60888895  0.71514503  0.68064552     0.16600
C839        C  0.61012228  0.68511859  0.68081050     0.26000
C840        C  0.64129518  0.68648132  0.68602751    -0.40300
C841        C  0.67068635  0.71815240  0.69268592     0.33000
C842        C  0.66936906  0.74791327  0.69252410     0.14700
F843        F  0.57903943  0.71359332  0.67396096    -0.12600
F844        F  0.70093987  0.72044090  0.69906215    -0.13200
F845        F  0.58125756  0.65508414  0.67432983    -0.15400
F846        F  0.69832148  0.77812592  0.69837034    -0.14000
F847        F  0.60319030  0.76732044  0.72576179    -0.14000
F848        F  0.67772910  0.85269487  0.63133862    -0.15400
C849        C  0.61456001  0.51754796  0.79823331     0.14600
C850        C  0.64349202  0.53372551  0.81729662     0.01600
C851        C  0.67216881  0.56425593  0.80758505     0.16600
C852        C  0.67215682  0.57836712  0.77941560     0.26000
C853        C  0.64338509  0.56218515  0.76005016    -0.40300
C854        C  0.61454041  0.53158901  0.76980094     0.33000
C855        C  0.64409945  0.51942736  0.84752507     0.01700
F856        F  0.70027664  0.58075407  0.82564227    -0.12600
F857        F  0.58632158  0.51521740  0.75188696    -0.13200
C858        C  0.66955743  0.51195181  0.85447474     0.16600
C859        C  0.67222986  0.50132270  0.88370714     0.26000
C860        C  0.65056326  0.49981251  0.90782910    -0.40300
C861        C  0.62296763  0.50439619  0.89936329     0.33000
C862        C  0.62019333  0.51449089  0.86994792     0.14700
F863        F  0.69177520  0.51444593  0.83258564    -0.12600
F864        F  0.59921574  0.50071324  0.92002554    -0.13200
F865        F  0.69485594  0.49071783  0.88710686    -0.15400
F866        F  0.59477543  0.52081958  0.86375130    -0.14000
F867        F  0.58660462  0.48778652  0.80688070    -0.14000
F868        F  0.70078414  0.60766346  0.77094185    -0.15400
C869        C  0.96718224  0.54200926  0.52229916     0.14600
C870        C  0.99170316  0.56711724  0.50290811     0.01600
C871        C  0.02008670  0.59583917  0.51579060     0.16600
C872        C  0.02260464  0.60060924  0.54738698     0.26000
C873        C  0.99688301  0.57654506  0.56678880    -0.40300
C874        C  0.96984250  0.54655327  0.55398913     0.33000
C875        C  0.98527357  0.56616003  0.46963513     0.01700
F876        F  0.04399750  0.62066415  0.49764142    -0.12600
F877        F  0.94443821  0.52296653  0.57188587    -0.13200
C878        C  0.95697964  0.56782416  0.45929909     0.16600
C879        C  0.95318839  0.57236528  0.42838020     0.26000
C880        C  0.97764014  0.57540111  0.40707057    -0.40300
C881        C  0.00495988  0.57178230  0.41712117     0.33000
C882        C  0.00884576  0.56738912  0.44822054     0.14700
F883        F  0.93422471  0.56747852  0.47947169    -0.12600
F884        F  0.02929219  0.57511295  0.39722995    -0.13200
F885        F  0.92627084  0.57527076  0.41944318    -0.15400
F886        F  0.03634984  0.56573585  0.45759957    -0.14000
F887        F  0.93962116  0.51395048  0.51039220    -0.14000
F888        F  0.04933631  0.62973720  0.55884692    -0.15400
C889        C  0.87204725  0.64112065  0.66329888     0.14600
C890        C  0.84448755  0.61960786  0.64422026     0.01600
C891        C  0.84835170  0.59832838  0.62351975     0.16600
C892        C  0.87822791  0.59680983  0.62336081     0.26000
C893        C  0.90532040  0.61739233  0.64326678    -0.40300
C894        C  0.90227410  0.64029049  0.66260516     0.33000
C895        C  0.81091035  0.61727726  0.64758449     0.01700
F896        F  0.82284430  0.57851005  0.60373959    -0.12600
F897        F  0.92784949  0.66069235  0.68210336    -0.13200
C898        C  0.80815759  0.64648543  0.64662790     0.16600
C899        C  0.77650176  0.64394611  0.65119154     0.26000
C900        C  0.74681302  0.61191346  0.65621870    -0.40300
C901        C  0.74964150  0.58275772  0.65672834     0.33000
C902        C  0.78132130  0.58542719  0.65285377     0.14700
F903        F  0.83608749  0.67753533  0.64097053    -0.12600
F904        F  0.72182285  0.55145269  0.66174973    -0.13200
F905        F  0.77493280  0.67275772  0.65054116    -0.15400
F906        F  0.78325565  0.55690137  0.65525619    -0.14000
F907        F  0.86912481  0.66166704  0.68384991    -0.14000
F908        F  0.88029390  0.57473549  0.60406504    -0.15400
C909        C  0.90981898  0.53183017  0.84513921     0.14600
C910        C  0.91112096  0.50894100  0.82469565     0.01600
C911        C  0.90170030  0.47637048  0.83520571     0.16600
C912        C  0.89076587  0.46660401  0.86540335     0.26000
C913        C  0.88764120  0.48899357  0.88614277    -0.40300
C914        C  0.89891957  0.52235103  0.87526556     0.33000
C915        C  0.92304056  0.51981460  0.79272526     0.01700
F916        F  0.90326297  0.45379528  0.81617573    -0.12600
F917        F  0.89865743  0.54589881  0.89389385    -0.13200
C918        C  0.95252201  0.52090515  0.78127879     0.16600
C919        C  0.96602325  0.53554742  0.75264245     0.26000
C920        C  0.95037866  0.54956858  0.73515736    -0.40300
C921        C  0.91994573  0.54677723  0.74601533     0.33000
C922        C  0.90635101  0.53188513  0.77426045     0.14700
F923        F  0.96931269  0.50952220  0.79854031    -0.12600
F924        F  0.90336022  0.55885885  0.72929786    -0.13200
F925        F  0.99541358  0.53785518  0.74293419    -0.15400
F926        F  0.87704917  0.52983638  0.78390560    -0.14000
F927        F  0.91973655  0.56392693  0.83599371    -0.14000
F928        F  0.88615318  0.43617985  0.87419767    -0.15400
C929        C  0.39289463  0.96816272  0.45660075     0.14600
C930        C  0.38822489  0.93755506  0.46855780     0.01600
C931        C  0.38278782  0.91137569  0.44827293     0.16600
C932        C  0.37809243  0.91424341  0.41707664     0.26000
C933        C  0.37854889  0.94325954  0.40583475    -0.40300
C934        C  0.38823410  0.97101357  0.42554566     0.33000
C935        C  0.38256306  0.93112262  0.50185261     0.01700
F936        F  0.37949337  0.88202386  0.45900072    -0.12600
F937        F  0.39065895  0.00011943  0.41517365    -0.13200
C938        C  0.35071268  0.90461494  0.51220047     0.16600
C939        C  0.34127452  0.90317655  0.54267462     0.26000
C940        C  0.36336819  0.92834807  0.56348822    -0.40300
C941        C  0.39640775  0.95308254  0.55378888     0.33000
C942        C  0.40592305  0.95441726  0.52320661     0.14700
F943        F  0.32735132  0.88182592  0.49227338    -0.12600
F944        F  0.41846085  0.97770884  0.57320891    -0.13200
F945        F  0.30956175  0.87823088  0.55133884    -0.15400
F946        F  0.43719241  0.97975891  0.51403756    -0.14000
F947        F  0.39842952  0.99412137  0.47535685    -0.14000
F948        F  0.36986719  0.88735985  0.39853203    -0.15400
C949        C  0.21057364  0.78708990  0.66774087     0.14600
C950        C  0.17930093  0.78543876  0.67269148     0.01600
C951        C  0.17899882  0.81574848  0.67657372     0.16600
C952        C  0.20911839  0.84722777  0.67381807     0.26000
C953        C  0.24018826  0.84905641  0.66691110    -0.40300
C954        C  0.24084838  0.81867923  0.66484851     0.33000
C955        C  0.14662982  0.75255554  0.67061198     0.01700
F956        F  0.14922640  0.81485321  0.68210945    -0.12600
F957        F  0.27033433  0.81940473  0.65832556    -0.13200
C958        C  0.13906076  0.72544730  0.69043117     0.16600
C959        C  0.10773248  0.69462891  0.68810113     0.26000
C960        C  0.08357511  0.69073076  0.66604363    -0.40300
C961        C  0.09174545  0.71767532  0.64578293     0.33000
C962        C  0.12284949  0.74821912  0.64810089     0.14700
F963        F  0.16156476  0.72921749  0.71255098    -0.12600
F964        F  0.06981882  0.71426666  0.62320345    -0.13200
F965        F  0.10061334  0.66914377  0.70798151    -0.15400
F966        F  0.12996390  0.77356847  0.62800653    -0.14000
F967        F  0.21144076  0.75811768  0.66379093    -0.14000
F968        F  0.20763412  0.87594463  0.67718678    -0.15400
C969        C  0.38420584  0.97522649  0.77927365     0.14600
C970        C  0.38166291  0.00264215  0.79050472     0.01600
C971        C  0.37134217  0.01975965  0.77076813     0.16600
C972        C  0.36234431  0.00881930  0.74060609     0.26000
C973        C  0.36407474  0.98082883  0.72940699    -0.40300
C974        C  0.37595088  0.96469306  0.74886226     0.33000
C975        C  0.38900843  0.01281014  0.82299497     0.01700
F976        F  0.36914255  0.04657993  0.78097647    -0.12600
F977        F  0.37837069  0.93794361  0.73882928    -0.13200
C978        C  0.41798636  0.04367108  0.83148219     0.16600
C979        C  0.42593077  0.05201872  0.86234171     0.26000
C980        C  0.40619196  0.02858414  0.88568916    -0.40300
C981        C  0.37436893  0.99985912  0.87649620     0.33000
C982        C  0.36657659  0.99177928  0.84567170     0.14700
F983        F  0.43950683  0.06508151  0.80982313    -0.12600
F984        F  0.34979101  0.97983138  0.89682082    -0.13200
F985        F  0.45503211  0.08162006  0.86923517    -0.15400
F986        F  0.33661886  0.96342515  0.83789863    -0.14000
F987        F  0.39455994  0.95855732  0.79787262    -0.14000
F988        F  0.35189030  0.02567916  0.72234574    -0.15400
C989        C  0.34588998  0.32485531  0.51603238     0.14600
C990        C  0.37745704  0.33006862  0.50586926     0.01600
C991        C  0.40029512  0.32983540  0.52729239     0.16600
C992        C  0.39041186  0.32133212  0.55779120     0.26000
C993        C  0.35738165  0.31271652  0.56727530    -0.40300
C994        C  0.33600327  0.31640341  0.54638681     0.33000
C995        C  0.38312672  0.32900553  0.47265888     0.01700
F996        F  0.43133239  0.33568362  0.51821102    -0.12600
F997        F  0.30437492  0.30949323  0.55470188    -0.13200
C998        C  0.38008819  0.35100152  0.45225098     0.16600
C999        C  0.37631337  0.34394737  0.42089183     0.26000
C1000       C  0.37593311  0.31495016  0.40946964    -0.40300
C1001       C  0.38231353  0.29498556  0.42973318     0.33000
C1002       C  0.38556983  0.30176782  0.46093035     0.14700
F1003       F  0.37853436  0.37802386  0.46292947    -0.12600
F1004       F  0.38248416  0.26697411  0.41979596    -0.13200
F1005       F  0.37007265  0.36378130  0.40222504    -0.15400
F1006       F  0.38763614  0.27951786  0.47996189    -0.14000
F1007       F  0.32310441  0.32464485  0.49596252    -0.14000
F1008       F  0.41222191  0.31908979  0.57736470    -0.15400
C1009       C  0.33159914  0.07919912  0.60687645     0.14600
C1010       C  0.29856800  0.07285715  0.60053331     0.01600
C1011       C  0.27147787  0.03901523  0.59770094     0.16600
C1012       C  0.27696206  0.01202451  0.60298626     0.26000
C1013       C  0.30977426  0.01844626  0.61069246    -0.40300
C1014       C  0.33726006  0.05232829  0.61145846     0.33000
C1015       C  0.29234139  0.10163554  0.60018475     0.01700
F1016       F  0.23955121  0.03213575  0.59058166    -0.12600
F1017       F  0.36939483  0.05969659  0.61837944    -0.13200
C1018       C  0.31272059  0.13047904  0.58218271     0.16600
C1019       C  0.31318417  0.16083173  0.58754923     0.26000
C1020       C  0.29277707  0.16257267  0.61070405    -0.40300
C1021       C  0.26916934  0.13252315  0.62589810     0.33000
C1022       C  0.26931530  0.10240885  0.62104976     0.14700
F1023       F  0.33357359  0.12972758  0.56050389    -0.12600
F1024       F  0.24791053  0.13283403  0.64738784    -0.13200
F1025       F  0.33462594  0.18885355  0.57102631    -0.15400
F1026       F  0.24908183  0.07494504  0.63868925    -0.14000
F1027       F  0.35817234  0.11154077  0.61067774    -0.14000
F1028       F  0.24991564  0.97965701  0.60136027    -0.15400
C1029       C  0.38415071  0.28855959  0.77739886     0.14600
C1030       C  0.38109283  0.25877125  0.78969609     0.01600
C1031       C  0.36695997  0.22922276  0.77171436     0.16600
C1032       C  0.35540482  0.22922044  0.74213186     0.26000
C1033       C  0.35798650  0.25895204  0.72982550    -0.40300
C1034       C  0.37287719  0.28872367  0.74773665     0.33000
C1035       C  0.39241047  0.25862719  0.82138448     0.01700
F1036       F  0.36456674  0.20037793  0.78278551    -0.12600
F1037       F  0.37556273  0.31778818  0.73697291    -0.13200
C1038       C  0.36910006  0.23720908  0.84347746     0.16600
C1039       C  0.37948517  0.23858348  0.87372271     0.26000
C1040       C  0.41326219  0.26277720  0.88325339    -0.40300
C1041       C  0.43724224  0.28183862  0.85985254     0.33000
C1042       C  0.42665062  0.28013043  0.82966048     0.14700
F1043       F  0.33579145  0.21582362  0.83602769    -0.12600
F1044       F  0.47134376  0.30099378  0.86517536    -0.13200
F1045       F  0.35565690  0.21775473  0.89426877    -0.15400
F1046       F  0.45020880  0.29915231  0.80816659    -0.14000
F1047       F  0.39710503  0.31727590  0.79454702    -0.14000
F1048       F  0.34169744  0.20003669  0.72558197    -0.15400
C1049       C  0.02869785  0.33032714  0.53033671     0.14600
C1050       C  0.00071789  0.33084908  0.51759835     0.01600
C1051       C  0.97506549  0.32863022  0.53698604     0.16600
C1052       C  0.97598331  0.32305464  0.56832194     0.26000
C1053       C  0.00239044  0.31927432  0.58054929    -0.40300
C1054       C  0.02948873  0.32448613  0.56147417     0.33000
C1055       C  0.99521884  0.32630600  0.48422719     0.01700
F1056       F  0.94791950  0.32939081  0.52519406    -0.12600
F1057       F  0.05575857  0.32173669  0.57263684    -0.13200
C1058       C  0.96900131  0.29482387  0.47320057     0.16600
C1059       C  0.96761269  0.28649176  0.44247353     0.26000
C1060       C  0.99273047  0.30936242  0.42201963    -0.40300
C1061       C  0.01781361  0.34179186  0.43264079     0.33000
C1062       C  0.01901844  0.35019963  0.46356672     0.14700
F1063       F  0.94640257  0.27080664  0.49272622    -0.12600
F1064       F  0.04272363  0.36432001  0.41371224    -0.13200
F1065       F  0.94273954  0.25507632  0.43316704    -0.15400
F1066       F  0.04450734  0.38088025  0.47367845    -0.14000
F1067       F  0.05363176  0.33207247  0.51212780    -0.14000
F1068       F  0.94935211  0.31792933  0.58603937    -0.15400
C1069       C  0.80282470  0.05584900  0.66290206     0.14600
C1070       C  0.80585369  0.08209261  0.64408562     0.01600
C1071       C  0.77837898  0.07608042  0.62530852     0.16600
C1072       C  0.74775067  0.04481737  0.62626486     0.26000
C1073       C  0.74428844  0.01885907  0.64576511    -0.40300
C1074       C  0.77239764  0.02434168  0.66349241     0.33000
C1075       C  0.83754382  0.11582916  0.64423722     0.01700
F1076       F  0.78122988  0.10059315  0.60604393    -0.12600
F1077       F  0.76996316  0.99986388  0.68258589    -0.13200
C1078       C  0.86901607  0.11869114  0.63766947     0.16600
C1079       C  0.89913290  0.15036651  0.63852948     0.26000
C1080       C  0.89835113  0.17987902  0.64604024    -0.40300
C1081       C  0.86661322  0.17708955  0.65183570     0.33000
C1082       C  0.83649581  0.14527753  0.65113335     0.14700
F1083       F  0.87059968  0.09069774  0.63039797    -0.12600
F1084       F  0.86468410  0.20489807  0.65911374    -0.13200
F1085       F  0.92909300  0.15197232  0.63231430    -0.15400
F1086       F  0.80641552  0.14307083  0.65820923    -0.14000
F1087       F  0.82885390  0.06118871  0.68162349    -0.14000
F1088       F  0.72140764  0.04005632  0.60828652    -0.15400
C1089       C  0.14339548  0.30683288  0.67096793     0.14600
C1090       C  0.14330033  0.27677244  0.67777565     0.01600
C1091       C  0.11231649  0.24728160  0.68543512     0.16600
C1092       C  0.08161035  0.24702068  0.68402841     0.26000
C1093       C  0.08133288  0.27650402  0.67551944    -0.40300
C1094       C  0.11258428  0.30671208  0.66983416     0.33000
C1095       C  0.17425867  0.27449130  0.67313720     0.01700
F1096       F  0.11175106  0.21832016  0.69336971    -0.12600
F1097       F  0.11314400  0.33549255  0.66129832    -0.13200
C1098       C  0.20461018  0.29500196  0.68952515     0.16600
C1099       C  0.23325892  0.29172014  0.68481351     0.26000
C1100       C  0.23169062  0.26749430  0.66399073    -0.40300
C1101       C  0.20127643  0.24727723  0.64754384     0.33000
C1102       C  0.17311074  0.25103420  0.65183178     0.14700
F1103       F  0.20627114  0.31763487  0.71047592    -0.12600
F1104       F  0.19888872  0.22425057  0.62666435    -0.13200
F1105       F  0.26219778  0.31173022  0.70102480    -0.15400
F1106       F  0.14464552  0.23196778  0.63471149    -0.14000
F1107       F  0.17301655  0.33573445  0.66366463    -0.14000
F1108       F  0.05204479  0.21765023  0.69052765    -0.15400
C1109       C  0.93715342  0.29301786  0.79159022     0.14600
C1110       C  0.94056184  0.27264789  0.81373107     0.01600
C1111       C  0.95759390  0.25540337  0.80565505     0.16600
C1112       C  0.96965360  0.25737398  0.77590518     0.26000
C1113       C  0.96576699  0.27735445  0.75362563    -0.40300
C1114       C  0.94990264  0.29561379  0.76200562     0.33000
C1115       C  0.92556310  0.26889956  0.84480688     0.01700
F1116       F  0.96270422  0.23666293  0.82661621    -0.12600
F1117       F  0.94517020  0.31470536  0.74117625    -0.13200
C1118       C  0.90313225  0.23663976  0.85723971     0.16600
C1119       C  0.88697102  0.23329157  0.88533236     0.26000
C1120       C  0.89102548  0.26228654  0.90124496    -0.40300
C1121       C  0.91681900  0.29456590  0.88990845     0.33000
C1122       C  0.93315924  0.29770999  0.86207901     0.14700
F1123       F  0.89606395  0.20800930  0.84182952    -0.12600
F1124       F  0.92520001  0.32377386  0.90480196    -0.13200
F1125       F  0.86795079  0.20137864  0.89675885    -0.15400
F1126       F  0.95662340  0.32928325  0.85196231    -0.14000
F1127       F  0.92013260  0.30936704  0.79822204    -0.14000
F1128       F  0.98495549  0.23941825  0.76888637    -0.15400
loop_ 
_geom_bond_atom_site_label_1 
_geom_bond_atom_site_label_2 
_geom_bond_distance 
_geom_bond_site_symmetry_2 
_ccdc_geom_bond_type 
In1           O3   2.228       .  S
In1           O4   2.279       .  S
In1          O12   2.249   1_655  S
In1           O6   2.213   1_655  S
In1           O8   2.228       .  S
In1           O9   2.284       .  S
In1          O10   2.246       .  S
In1          O13   2.229   1_655  S
C2            O8   1.259       .  A
C2           O10   1.260       .  A
C2         C1080   1.477       .  S
O3           C11   1.257       .  A
O4           C11   1.268       .  A
C5           O12   1.267       .  A
C5            O6   1.263       .  A
C5         C1093   1.477       .  S
C7            O9   1.265       .  A
C7           O13   1.257   1_655  A
C7         C1053   1.482   1_655  S
C11        C1113   1.489       .  S
In14         O16   2.233       .  S
In14         O17   2.274       .  S
In14         O25   2.262       .  S
In14         O19   2.225       .  S
In14         O21   2.243       .  S
In14         O22   2.251       .  S
In14         O23   2.239       .  S
In14         O26   2.274       .  S
C15          O21   1.263       .  A
C15          O23   1.261       .  A
C15        C1020   1.479       .  S
O16          C24   1.258       .  A
O17          C24   1.264       .  A
C18          O25   1.262       .  A
C18          O19   1.259       .  A
C18        C1100   1.481       .  S
C20          O22   1.256       .  A
C20          O26   1.262       .  A
C20        C1033   1.489       .  S
C24         C993   1.487       .  S
In27         O29   2.231       .  S
In27         O30   2.281       .  S
In27         O38   2.257       .  S
In27         O32   2.219       .  S
In27         O34   2.236       .  S
In27         O35   2.270       .  S
In27         O36   2.233       .  S
In27         O39   2.228       .  S
C28          O34   1.263       .  A
C28          O36   1.262       .  A
C28        C1013   1.480   1_565  S
O29          C37   1.256       .  A
O30          C37   1.265       .  A
C31          O38   1.263       .  A
C31          O32   1.259       .  A
C31         C953   1.479       .  S
C33          O35   1.264       .  A
C33          O39   1.258       .  A
C33         C940   1.483       .  S
C37         C973   1.485       .  S
In40         O42   2.279       .  S
In40         O43   2.231   1_655  S
In40         O51   2.275   1_655  S
In40         O45   2.210   1_655  S
In40         O47   2.253       .  S
In40         O48   2.220       .  S
In40         O49   2.231       .  S
In40         O52   2.302       .  S
C41          O47   1.263       .  A
C41          O49   1.260       .  A
C41         C893   1.480       .  S
O42          C50   1.266       .  A
O43          C50   1.256   1_455  A
C44          O51   1.266       .  A
C44          O45   1.258       .  A
C44         C960   1.478       .  S
C46          O48   1.255       .  A
C46          O52   1.267       .  A
C46         C920   1.488       .  S
C50         C873   1.485       .  S
In53         O55   2.223       .  S
In53         O56   2.277       .  S
In53         O64   2.272       .  S
In53         O58   2.215       .  S
In53         O60   2.246       .  S
In53         O61   2.288       .  S
In53         O62   2.244       .  S
In53         O65   2.216       .  S
C54          O60   1.258       .  A
C54          O62   1.263       .  A
C54         C900   1.482       .  S
O55          C63   1.257       .  A
O56          C63   1.266       .  A
C57          O64   1.266       .  A
C57          O58   1.258       .  A
C57         C840   1.481       .  S
C59          O61   1.265       .  A
C59          O65   1.258       .  A
C59         C813   1.483       .  S
C63         C853   1.487       .  S
In66         O68   2.235       .  S
In66         O69   2.263       .  S
In66         O77   2.252       .  S
In66         O71   2.220       .  S
In66         O73   2.240       .  S
In66         O74   2.283       .  S
In66         O75   2.231       .  S
In66         O78   2.204       .  S
C67          O73   1.262       .  A
C67          O75   1.259       .  A
C67        C1073   1.473   1_565  S
O68          C76   1.257       .  A
O69          C76   1.262       .  A
C70          O77   1.265       .  A
C70          O71   1.262       .  A
C70         C833   1.480       .  S
C72          O74   1.266       .  A
C72          O78   1.255       .  A
C72         C800   1.480       .  S
C76         C780   1.480       .  S
In79         O81   2.224       .  S
In79         O82   2.287       .  S
In79         O90   2.248       .  S
In79         O84   2.221       .  S
In79         O86   2.246       .  S
In79         O87   2.277       .  S
In79         O88   2.229       .  S
In79         O91   2.228       .  S
C80          O86   1.260       .  A
C80          O88   1.262       .  A
C80         C720   1.476       .  S
O81          C89   1.255       .  A
O82          C89   1.264       .  A
C83          O90   1.264       .  A
C83          O84   1.261       .  A
C83         C733   1.477   1_565  S
C85          O87   1.263       .  A
C85          O91   1.257       .  A
C85         C933   1.482       .  S
C89         C753   1.483       .  S
In92         O94   2.230       .  S
In92         O95   2.271       .  S
In92        O103   2.266       .  S
In92         O97   2.225       .  S
In92         O99   2.244   1_655  S
In92        O100   2.279       .  S
In92        O101   2.229   1_655  S
In92        O104   2.242   1_655  S
C93          O99   1.262       .  A
C93         O101   1.260       .  A
C93         C713   1.474       .  S
O94         C102   1.260       .  A
O95         C102   1.266       .  A
C96         O103   1.265       .  A
C96          O97   1.259       .  A
C96         C673   1.486       .  S
C98         O100   1.265   1_455  A
C98         O104   1.258       .  A
C98         C700   1.494       .  S
C102        C880   1.482       .  S
In105       O107   2.289       .  S
In105       O108   2.250       .  S
In105       O116   2.251       .  S
In105       O110   2.246       .  S
In105       O112   2.262       .  S
In105       O113   2.278       .  S
In105       O114   2.246       .  S
In105       O117   2.238       .  S
C106        O112   1.261       .  A
C106        O114   1.259       .  A
C106        C640   1.484       .  S
O107        C115   1.260       .  A
O108        C115   1.255       .  A
C109        O116   1.263       .  A
C109        O110   1.262       .  A
C109        C680   1.483       .  S
C111        O113   1.265       .  A
C111        O117   1.258       .  A
C111        C820   1.484       .  S
C115        C660   1.493       .  S
In118       O120   2.228       .  S
In118       O121   2.274       .  S
In118       O129   2.267       .  S
In118       O123   2.215       .  S
In118       O125   2.231       .  S
In118       O126   2.291       .  S
In118       O127   2.224       .  S
In118       O130   2.222       .  S
C119        O125   1.261       .  A
C119        O127   1.259       .  A
C119        C600   1.469       .  S
O120        C128   1.257       .  A
O121        C128   1.263       .  A
C122        O129   1.269       .  A
C122        O123   1.257       .  A
C122        C740   1.484       .  S
C124        O126   1.266       .  A
C124        O130   1.255       .  A
C124        C620   1.490       .  S
C128       C1000   1.485       .  S
In131       O133   2.220       .  S
In131       O134   2.280       .  S
In131       O142   2.242   1_455  S
In131       O136   2.211   1_455  S
In131       O138   2.233       .  S
In131       O139   2.272       .  S
In131       O140   2.212       .  S
In131       O143   2.211   1_455  S
C132        O138   1.261       .  A
C132        O140   1.263       .  A
C132        C593   1.470       .  S
O133        C141   1.255       .  A
O134        C141   1.266       .  A
C135        O142   1.264       .  A
C135        O136   1.260       .  A
C135        C553   1.469       .  S
C137        O139   1.266   1_655  A
C137        O143   1.257       .  A
C137       C1060   1.482       .  S
C141        C573   1.481       .  S
In144       O146   2.274       .  S
In144       O147   2.226       .  S
In144       O155   2.248       .  S
In144       O149   2.206       .  S
In144       O151   2.235       .  S
In144       O152   2.236       .  S
In144       O153   2.247       .  S
In144       O156   2.261       .  S
C145        O151   1.260       .  A
C145        O153   1.262       .  A
C145        C633   1.468       .  S
O146        C154   1.263       .  A
O147        C154   1.256       .  A
C148        O155   1.263       .  A
C148        O149   1.259       .  A
C148        C560   1.470   1_565  S
C150        O152   1.258       .  A
C150        O156   1.261       .  A
C150        C533   1.483       .  S
C154        C773   1.483       .  S
C157        C473   1.595       .  S
C157        C500   1.590       .  S
C157        C513   1.575       .  S
C157        C540   1.578       .  S
C158        C433   1.582       .  S
C158        C460   1.588       .  S
C158        C520   1.572       .  S
C158        C760   1.573       .  S
C159        C393   1.585       .  S
C159        C413   1.583       .  S
C159        C453   1.587       .  S
C159        C693   1.577       .  S
C160        C353   1.588       .  S
C160        C380   1.582       .  S
C160        C420   1.578       .  S
C160        C580   1.571       .  S
C161        C313   1.583       .  S
C161        C340   1.587       .  S
C161        C373   1.589       .  S
C161        C613   1.574       .  S
C162        C300   1.589       .  S
C162        C333   1.578       .  S
C162        C493   1.584       .  S
C162        C653   1.578       .  S
C163        C253   1.599       .  S
C163        C273   1.578       .  S
C163        C400   1.591       .  S
C163        C913   1.580       .  S
C164        C240   1.585       .  S
C164        C280   1.575       .  S
C164        C360   1.584       .  S
C164       C1120   1.578       .  S
C165        C193   1.584       .  S
C165        C213   1.576       .  S
C165        C440   1.577       .  S
C165        C980   1.573       .  S
C166        C220   1.570       .  S
C166        C233   1.582       .  S
C166        C480   1.583   1_545  S
C166        C793   1.569       .  S
C167        C180   1.587       .  S
C167        C260   1.592       .  S
C167        C293   1.585       .  S
C167        C860   1.576       .  S
C168        C173   1.579       .  S
C168        C200   1.586       .  S
C168        C320   1.585       .  S
C168       C1040   1.568       .  S
C169        C170   1.404       .  A
C169        C174   1.412       .  A
C169        F187   1.357       .  S
C170        C175   1.496       .  S
C170        C171   1.399       .  A
C171        C172   1.398       .  A
C171        F176   1.358       .  S
C172        C173   1.425       .  A
C172        F188   1.354       .  S
C173        C174   1.426       .  A
C174        F177   1.355       .  S
C175        C178   1.400       .  A
C175        C182   1.399       .  A
C178        C179   1.407       .  A
C178        F183   1.358       .  S
C179        C180   1.427       .  A
C179        F185   1.356       .  S
C180        C181   1.433       .  A
C181        C182   1.403       .  A
C181        F184   1.353       .  S
C182        F186   1.359       .  S
C189        C190   1.410       .  A
C189        C194   1.415       .  A
C189        F207   1.357       .  S
C190        C195   1.517       .  S
C190        C191   1.406       .  A
C191        C192   1.404       .  A
C191        F196   1.358       .  S
C192        C193   1.428       .  A
C192        F208   1.355       .  S
C193        C194   1.424       .  A
C194        F197   1.356       .  S
C195        C198   1.411       .  A
C195        C202   1.406       .  A
C198        C199   1.418       .  A
C198        F203   1.357       .  S
C199        C200   1.428       .  A
C199        F205   1.355       .  S
C200        C201   1.423       .  A
C201        C202   1.402       .  A
C201        F204   1.355       .  S
C202        F206   1.358       .  S
C209        C210   1.399       .  A
C209        C214   1.404       .  A
C209        F227   1.358       .  S
C210        C215   1.486       .  S
C210        C211   1.400       .  A
C211        C212   1.395       .  A
C211        F216   1.359       .  S
C212        C213   1.427       .  A
C212        F228   1.353       .  S
C213        C214   1.428       .  A
C214        F217   1.357       .  S
C215        C218   1.401       .  A
C215        C222   1.402       .  A
C218        C219   1.394       .  A
C218        F223   1.359   1_545  S
C219        C220   1.422       .  A
C219        F225   1.356   1_545  S
C220        C221   1.424       .  A
C221        C222   1.405       .  A
C221        F224   1.356       .  S
C222        F226   1.357       .  S
C229        C230   1.407       .  A
C229        C234   1.401       .  A
C229        F247   1.358       .  S
C230        C235   1.521       .  S
C230        C231   1.413       .  A
C231        C232   1.420       .  A
C231        F236   1.357       .  S
C232        C233   1.425       .  A
C232        F248   1.356       .  S
C233        C234   1.423       .  A
C234        F237   1.356       .  S
C235        C238   1.413       .  A
C235        C242   1.407       .  A
C238        C239   1.421       .  A
C238        F243   1.357       .  S
C239        C240   1.425       .  A
C239        F245   1.356       .  S
C240        C241   1.423       .  A
C241        C242   1.402       .  A
C241        F244   1.355       .  S
C242        F246   1.358       .  S
C249        C250   1.404       .  A
C249        C254   1.410       .  A
C249        F267   1.359       .  S
C250        C255   1.521       .  S
C250        C251   1.410       .  A
C251        C252   1.420       .  A
C251        F256   1.357       .  S
C252        C253   1.426       .  A
C252        F268   1.357       .  S
C253        C254   1.434       .  A
C254        F257   1.355       .  S
C255        C258   1.410       .  A
C255        C262   1.408       .  A
C258        C259   1.419       .  A
C258        F263   1.357       .  S
C259        C260   1.427       .  A
C259        F265   1.356       .  S
C260        C261   1.423       .  A
C261        C262   1.413       .  A
C261        F264   1.355       .  S
C262        F266   1.357       .  S
C269        C270   1.402       .  A
C269        C274   1.401       .  A
C269        F287   1.358       .  S
C270        C275   1.498       .  S
C270        C271   1.405       .  A
C271        C272   1.407       .  A
C271        F276   1.358       .  S
C272        C273   1.423       .  A
C272        F288   1.356       .  S
C273        C274   1.427       .  A
C274        F277   1.356       .  S
C275        C278   1.407       .  A
C275        C282   1.403       .  A
C278        C279   1.408       .  A
C278        F283   1.358       .  S
C279        C280   1.422       .  A
C279        F285   1.356       .  S
C280        C281   1.424       .  A
C281        C282   1.400       .  A
C281        F284   1.355       .  S
C282        F286   1.358       .  S
C289        C290   1.408   1_556  A
C289        C294   1.408       .  A
C289        F307   1.358       .  S
C290        C295   1.523       .  S
C290        C291   1.418       .  A
C291        C292   1.414   1_554  A
C291        F296   1.356       .  S
C292        C293   1.416       .  A
C292        F308   1.358   1_556  S
C293        C294   1.427       .  A
C294        F297   1.356       .  S
C295        C298   1.414       .  A
C295        C302   1.406       .  A
C298        C299   1.411       .  A
C298        F303   1.357   1_554  S
C299        C300   1.420       .  A
C299        F305   1.357       .  S
C300        C301   1.433       .  A
C301        C302   1.408       .  A
C301        F304   1.353       .  S
C302        F306   1.357       .  S
C309        C310   1.416       .  A
C309        C314   1.416   1_556  A
C309        F327   1.357       .  S
C310        C315   1.518       .  S
C310        C311   1.404   1_556  A
C311        C312   1.397       .  A
C311        F316   1.357       .  S
C312        C313   1.425       .  A
C312        F328   1.356       .  S
C313        C314   1.424       .  A
C314        F317   1.354       .  S
C315        C318   1.405       .  A
C315        C322   1.413       .  A
C318        C319   1.406       .  A
C318        F323   1.358       .  S
C319        C320   1.433       .  A
C319        F325   1.355       .  S
C320        C321   1.419       .  A
C321        C322   1.408       .  A
C321        F324   1.358       .  S
C322        F326   1.357   1_556  S
C329        C330   1.404       .  A
C329        C334   1.409       .  A
C329        F347   1.357       .  S
C330        C335   1.499       .  S
C330        C331   1.405       .  A
C331        C332   1.398       .  A
C331        F336   1.358       .  S
C332        C333   1.421       .  A
C332        F348   1.356       .  S
C333        C334   1.427       .  A
C334        F337   1.356       .  S
C335        C338   1.406       .  A
C335        C342   1.399       .  A
C338        C339   1.412       .  A
C338        F343   1.357   1_554  S
C339        C340   1.427       .  A
C339        F345   1.358       .  S
C340        C341   1.431       .  A
C341        C342   1.393       .  A
C341        F344   1.353       .  S
C342        F346   1.360       .  S
C349        C350   1.397       .  A
C349        C354   1.406   1_655  A
C349        F367   1.358       .  S
C350        C355   1.501   1_554  S
C350        C351   1.405   1_654  A
C351        C352   1.411   1_556  A
C351        F356   1.357       .  S
C352        C353   1.423       .  A
C352        F368   1.357   1_554  S
C353        C354   1.436       .  A
C354        F357   1.353       .  S
C355        C358   1.398       .  A
C355        C362   1.403       .  A
C358        C359   1.404       .  A
C358        F363   1.359       .  S
C359        C360   1.433       .  A
C359        F365   1.355       .  S
C360        C361   1.425       .  A
C361        C362   1.413       .  A
C361        F364   1.355       .  S
C362        F366   1.357       .  S
C369        C370   1.406       .  A
C369        C374   1.410       .  A
C369        F387   1.357       .  S
C370        C375   1.515       .  S
C370        C371   1.408       .  A
C371        C372   1.409       .  A
C371        F376   1.359       .  S
C372        C373   1.429       .  A
C372        F388   1.353       .  S
C373        C374   1.426       .  A
C374        F377   1.357       .  S
C375        C378   1.405       .  A
C375        C382   1.412       .  A
C378        C379   1.401       .  A
C378        F383   1.358       .  S
C379        C380   1.425       .  A
C379        F385   1.356       .  S
C380        C381   1.424       .  A
C381        C382   1.416       .  A
C381        F384   1.355       .  S
C382        F386   1.357       .  S
C389        C390   1.408       .  A
C389        C394   1.416   1_556  A
C389        F407   1.357       .  S
C390        C395   1.507   1_455  S
C390        C391   1.400   1_456  A
C391        C392   1.405   1_655  A
C391        F396   1.358       .  S
C392        C393   1.427       .  A
C392        F408   1.356       .  S
C393        C394   1.426       .  A
C394        F397   1.355   1_554  S
C395        C398   1.398       .  A
C395        C402   1.409       .  A
C398        C399   1.405       .  A
C398        F403   1.358       .  S
C399        C400   1.431       .  A
C399        F405   1.356       .  S
C400        C401   1.424       .  A
C401        C402   1.418       .  A
C401        F404   1.354       .  S
C402        F406   1.357       .  S
C409        C410   1.403       .  A
C409        C414   1.401       .  A
C409        F427   1.359       .  S
C410        C415   1.503       .  S
C410        C411   1.405       .  A
C411        C412   1.409       .  A
C411        F416   1.357       .  S
C412        C413   1.424       .  A
C412        F428   1.357       .  S
C413        C414   1.429       .  A
C414        F417   1.354       .  S
C415        C418   1.404       .  A
C415        C422   1.407       .  A
C418        C419   1.399       .  A
C418        F423   1.358       .  S
C419        C420   1.423       .  A
C419        F425   1.356       .  S
C420        C421   1.425       .  A
C421        C422   1.409       .  A
C421        F424   1.356       .  S
C422        F426   1.357       .  S
C429        C430   1.407   1_556  A
C429        C434   1.415   1_556  A
C429        F447   1.357       .  S
C430        C435   1.496   1_554  S
C430        C431   1.395       .  A
C431        C432   1.398       .  A
C431        F436   1.359       .  S
C432        C433   1.430       .  A
C432        F448   1.355       .  S
C433        C434   1.423       .  A
C434        F437   1.354       .  S
C435        C438   1.408       .  A
C435        C442   1.396       .  A
C438        C439   1.415   1_565  A
C438        F443   1.357   1_556  S
C439        C440   1.423       .  A
C439        F445   1.355       .  S
C440        C441   1.428   1_545  A
C441        C442   1.398       .  A
C441        F444   1.357       .  S
C442        F446   1.358       .  S
C449        C450   1.402       .  A
C449        C454   1.409       .  A
C449        F467   1.358       .  S
C450        C455   1.504       .  S
C450        C451   1.402       .  A
C451        C452   1.412       .  A
C451        F456   1.358       .  S
C452        C453   1.431       .  A
C452        F468   1.355       .  S
C453        C454   1.425       .  A
C454        F457   1.355       .  S
C455        C458   1.397       .  A
C455        C462   1.407       .  A
C458        C459   1.402       .  A
C458        F463   1.359       .  S
C459        C460   1.433       .  A
C459        F465   1.355       .  S
C460        C461   1.424       .  A
C461        C462   1.417       .  A
C461        F464   1.357   1_554  S
C462        F466   1.357   1_554  S
C469        C470   1.400       .  A
C469        C474   1.401       .  A
C469        F487   1.358       .  S
C470        C475   1.511   1_554  S
C470        C471   1.410       .  A
C471        C472   1.408       .  A
C471        F476   1.358   1_554  S
C472        C473   1.427       .  A
C472        F488   1.358       .  S
C473        C474   1.435       .  A
C474        F477   1.350       .  S
C475        C478   1.402       .  A
C475        C482   1.411   1_556  A
C478        C479   1.403       .  A
C478        F483   1.358       .  S
C479        C480   1.433       .  A
C479        F485   1.353       .  S
C480        C481   1.419   1_565  A
C481        C482   1.406   1_546  A
C481        F484   1.357   1_556  S
C482        F486   1.358       .  S
C489        C490   1.410       .  A
C489        C494   1.404       .  A
C489        F507   1.358       .  S
C490        C495   1.527       .  S
C490        C491   1.416       .  A
C491        C492   1.418       .  A
C491        F496   1.357       .  S
C492        C493   1.423       .  A
C492        F508   1.356       .  S
C493        C494   1.423       .  A
C494        F497   1.357       .  S
C495        C498   1.410       .  A
C495        C502   1.413       .  A
C498        C499   1.404       .  A
C498        F503   1.358       .  S
C499        C500   1.426       .  A
C499        F505   1.357       .  S
C500        C501   1.426       .  A
C501        C502   1.417       .  A
C501        F504   1.353       .  S
C502        F506   1.357       .  S
C509        C510   1.399       .  A
C509        C514   1.397       .  A
C509        F527   1.359       .  S
C510        C515   1.486       .  S
C510        C511   1.400       .  A
C511        C512   1.406       .  A
C511        F516   1.358       .  S
C512        C513   1.428       .  A
C512        F528   1.354       .  S
C513        C514   1.426       .  A
C514        F517   1.359       .  S
C515        C518   1.400       .  A
C515        C522   1.402       .  A
C518        C519   1.401       .  A
C518        F523   1.358       .  S
C519        C520   1.424       .  A
C519        F525   1.357       .  S
C520        C521   1.422       .  A
C521        C522   1.405       .  A
C521        F524   1.355       .  S
C522        F526   1.357       .  S
C529        C530   1.401       .  A
C529        C534   1.398       .  A
C529        F547   1.357       .  S
C530        C535   1.481       .  S
C530        C531   1.406       .  A
C531        C532   1.403       .  A
C531        F536   1.358       .  S
C532        C533   1.408       .  A
C532        F548   1.358       .  S
C533        C534   1.410       .  A
C534        F537   1.358       .  S
C535        C538   1.395       .  A
C535        C542   1.401       .  A
C538        C539   1.398       .  A
C538        F543   1.358       .  S
C539        C540   1.431       .  A
C539        F545   1.355       .  S
C540        C541   1.423       .  A
C541        C542   1.403       .  A
C541        F544   1.358       .  S
C542        F546   1.357       .  S
C549        C550   1.404       .  A
C549        C554   1.393       .  A
C549        F567   1.358       .  S
C550        C555   1.472       .  S
C550        C551   1.404       .  A
C551        C552   1.398       .  A
C551        F556   1.358       .  S
C552        C553   1.406       .  A
C552        F568   1.358       .  S
C553        C554   1.406       .  A
C554        F557   1.358       .  S
C555        C558   1.402       .  A
C555        C562   1.405       .  A
C558        C559   1.388       .  A
C558        F563   1.358       .  S
C559        C560   1.406       .  A
C559        F565   1.358       .  S
C560        C561   1.408       .  A
C561        C562   1.401       .  A
C561        F564   1.358       .  S
C562        F566   1.358       .  S
C569        C570   1.409       .  A
C569        C574   1.401       .  A
C569        F587   1.358       .  S
C570        C575   1.485       .  S
C570        C571   1.403       .  A
C571        C572   1.399       .  A
C571        F576   1.358       .  S
C572        C573   1.411       .  A
C572        F588   1.358       .  S
C573        C574   1.405       .  A
C574        F577   1.357   1_455  S
C575        C578   1.397       .  A
C575        C582   1.404       .  A
C578        C579   1.395       .  A
C578        F583   1.359       .  S
C579        C580   1.428       .  A
C579        F585   1.356       .  S
C580        C581   1.423       .  A
C581        C582   1.404       .  A
C581        F584   1.358       .  S
C582        F586   1.358       .  S
C589        C590   1.404       .  A
C589        C594   1.398       .  A
C589        F607   1.358       .  S
C590        C595   1.474       .  S
C590        C591   1.405       .  A
C591        C592   1.389       .  A
C591        F596   1.358       .  S
C592        C593   1.404       .  A
C592        F608   1.359       .  S
C593        C594   1.410       .  A
C594        F597   1.357       .  S
C595        C598   1.406       .  A
C595        C602   1.404       .  A
C598        C599   1.394       .  A
C598        F603   1.358       .  S
C599        C600   1.406       .  A
C599        F605   1.358       .  S
C600        C601   1.406       .  A
C601        C602   1.393       .  A
C601        F604   1.358       .  S
C602        F606   1.358       .  S
C609        C610   1.398       .  A
C609        C614   1.399       .  A
C609        F627   1.358       .  S
C610        C615   1.482       .  S
C610        C611   1.400       .  A
C611        C612   1.404       .  A
C611        F616   1.358       .  S
C612        C613   1.425       .  A
C612        F628   1.357       .  S
C613        C614   1.426       .  A
C614        F617   1.356       .  S
C615        C618   1.406       .  A
C615        C622   1.399       .  A
C618        C619   1.406       .  A
C618        F623   1.357       .  S
C619        C620   1.409       .  A
C619        F625   1.358       .  S
C620        C621   1.414       .  A
C621        C622   1.398       .  A
C621        F624   1.358       .  S
C622        F626   1.358       .  S
C629        C630   1.404       .  A
C629        C634   1.395       .  A
C629        F647   1.358       .  S
C630        C635   1.477       .  S
C630        C631   1.405       .  A
C631        C632   1.402       .  A
C631        F636   1.357       .  S
C632        C633   1.404       .  A
C632        F648   1.358       .  S
C633        C634   1.403       .  A
C634        F637   1.358       .  S
C635        C638   1.402       .  A
C635        C642   1.403       .  A
C638        C639   1.401       .  A
C638        F643   1.358       .  S
C639        C640   1.410       .  A
C639        F645   1.357       .  S
C640        C641   1.410       .  A
C641        C642   1.400       .  A
C641        F644   1.358       .  S
C642        F646   1.358       .  S
C649        C650   1.400       .  A
C649        C654   1.402       .  A
C649        F667   1.358       .  S
C650        C655   1.487       .  S
C650        C651   1.399       .  A
C651        C652   1.405       .  A
C651        F656   1.358       .  S
C652        C653   1.429       .  A
C652        F668   1.355       .  S
C653        C654   1.423       .  A
C654        F657   1.356       .  S
C655        C658   1.402       .  A
C655        C662   1.406       .  A
C658        C659   1.401       .  A
C658        F663   1.357       .  S
C659        C660   1.412       .  A
C659        F665   1.358       .  S
C660        C661   1.411       .  A
C661        C662   1.406       .  A
C661        F664   1.357       .  S
C662        F666   1.358       .  S
C669        C670   1.404       .  A
C669        C674   1.394       .  A
C669        F687   1.358       .  S
C670        C675   1.486       .  S
C670        C671   1.408       .  A
C671        C672   1.405       .  A
C671        F676   1.358       .  S
C672        C673   1.410       .  A
C672        F688   1.358       .  S
C673        C674   1.409       .  A
C674        F677   1.357       .  S
C675        C678   1.406       .  A
C675        C682   1.407       .  A
C678        C679   1.399       .  A
C678        F683   1.358       .  S
C679        C680   1.408       .  A
C679        F685   1.357       .  S
C680        C681   1.408       .  A
C681        C682   1.402       .  A
C681        F684   1.358       .  S
C682        F686   1.358       .  S
C689        C690   1.400       .  A
C689        C694   1.399       .  A
C689        F707   1.358       .  S
C690        C695   1.491       .  S
C690        C691   1.403       .  A
C691        C692   1.408       .  A
C691        F696   1.358       .  S
C692        C693   1.425       .  A
C692        F708   1.357       .  S
C693        C694   1.425       .  A
C694        F697   1.356       .  S
C695        C698   1.407       .  A
C695        C702   1.404       .  A
C698        C699   1.406       .  A
C698        F703   1.358       .  S
C699        C700   1.410       .  A
C699        F705   1.357       .  S
C700        C701   1.413       .  A
C701        C702   1.401       .  A
C701        F704   1.358       .  S
C702        F706   1.358       .  S
C709        C710   1.403       .  A
C709        C714   1.395       .  A
C709        F727   1.358       .  S
C710        C715   1.475       .  S
C710        C711   1.404       .  A
C711        C712   1.398       .  A
C711        F716   1.357       .  S
C712        C713   1.407       .  A
C712        F728   1.358       .  S
C713        C714   1.407       .  A
C714        F717   1.358       .  S
C715        C718   1.403       .  A
C715        C722   1.404       .  A
C718        C719   1.392       .  A
C718        F723   1.358       .  S
C719        C720   1.406       .  A
C719        F725   1.358       .  S
C720        C721   1.411       .  A
C721        C722   1.402       .  A
C721        F724   1.358       .  S
C722        F726   1.358       .  S
C729        C730   1.405       .  A
C729        C734   1.396       .  A
C729        F747   1.358       .  S
C730        C735   1.481       .  S
C730        C731   1.405       .  A
C731        C732   1.400       .  A
C731        F736   1.358       .  S
C732        C733   1.408       .  A
C732        F748   1.357       .  S
C733        C734   1.406       .  A
C734        F737   1.359       .  S
C735        C738   1.402       .  A
C735        C742   1.406       .  A
C738        C739   1.395       .  A
C738        F743   1.359       .  S
C739        C740   1.413       .  A
C739        F745   1.358       .  S
C740        C741   1.407       .  A
C741        C742   1.402       .  A
C741        F744   1.358       .  S
C742        F746   1.357       .  S
C749        C750   1.410       .  A
C749        C754   1.405       .  A
C749        F767   1.358       .  S
C750        C755   1.489       .  S
C750        C751   1.405       .  A
C751        C752   1.397       .  A
C751        F756   1.358       .  S
C752        C753   1.409       .  A
C752        F768   1.358       .  S
C753        C754   1.406       .  A
C754        F757   1.357       .  S
C755        C758   1.400       .  A
C755        C762   1.403       .  A
C758        C759   1.398       .  A
C758        F763   1.358       .  S
C759        C760   1.427       .  A
C759        F765   1.354       .  S
C760        C761   1.423       .  A
C761        C762   1.401       .  A
C761        F764   1.358       .  S
C762        F766   1.358       .  S
C769        C770   1.405       .  A
C769        C774   1.396       .  A
C769        F787   1.358       .  S
C770        C775   1.484       .  S
C770        C771   1.406       .  A
C771        C772   1.402       .  A
C771        F776   1.357       .  S
C772        C773   1.408       .  A
C772        F788   1.357       .  S
C773        C774   1.410       .  A
C774        F777   1.359       .  S
C775        C778   1.406       .  A
C775        C782   1.406       .  A
C778        C779   1.401       .  A
C778        F783   1.358       .  S
C779        C780   1.408       .  A
C779        F785   1.358       .  S
C780        C781   1.408       .  A
C781        C782   1.398       .  A
C781        F784   1.358       .  S
C782        F786   1.358       .  S
C789        C790   1.403       .  A
C789        C794   1.399       .  A
C789        F807   1.358   1_545  S
C790        C795   1.483   1_545  S
C790        C791   1.397       .  A
C791        C792   1.397       .  A
C791        F796   1.358       .  S
C792        C793   1.430       .  A
C792        F808   1.356       .  S
C793        C794   1.419       .  A
C794        F797   1.357       .  S
C795        C798   1.410       .  A
C795        C802   1.401   1_565  A
C798        C799   1.404       .  A
C798        F803   1.358       .  S
C799        C800   1.407       .  A
C799        F805   1.358       .  S
C800        C801   1.410       .  A
C801        C802   1.393   1_565  A
C801        F804   1.358   1_565  S
C802        F806   1.358       .  S
C809        C810   1.408       .  A
C809        C814   1.408       .  A
C809        F827   1.358       .  S
C810        C815   1.485       .  S
C810        C811   1.403       .  A
C811        C812   1.394       .  A
C811        F816   1.358       .  S
C812        C813   1.407       .  A
C812        F828   1.358       .  S
C813        C814   1.410       .  A
C814        F817   1.358       .  S
C815        C818   1.407       .  A
C815        C822   1.405       .  A
C818        C819   1.404       .  A
C818        F823   1.357       .  S
C819        C820   1.407       .  A
C819        F825   1.358       .  S
C820        C821   1.409       .  A
C821        C822   1.400       .  A
C821        F824   1.358       .  S
C822        F826   1.358       .  S
C829        C830   1.404       .  A
C829        C834   1.402       .  A
C829        F847   1.358       .  S
C830        C835   1.478       .  S
C830        C831   1.404       .  A
C831        C832   1.395       .  A
C831        F836   1.358       .  S
C832        C833   1.408       .  A
C832        F848   1.358       .  S
C833        C834   1.409       .  A
C834        F837   1.357       .  S
C835        C838   1.406       .  A
C835        C842   1.401       .  A
C838        C839   1.404       .  A
C838        F843   1.357       .  S
C839        C840   1.408       .  A
C839        F845   1.358       .  S
C840        C841   1.410       .  A
C841        C842   1.394       .  A
C841        F844   1.357       .  S
C842        F846   1.358       .  S
C849        C850   1.408       .  A
C849        C854   1.405       .  A
C849        F867   1.358       .  S
C850        C855   1.487       .  S
C850        C851   1.403       .  A
C851        C852   1.396       .  A
C851        F856   1.358       .  S
C852        C853   1.411       .  A
C852        F868   1.358       .  S
C853        C854   1.409       .  A
C854        F857   1.358       .  S
C855        C858   1.401       .  A
C855        C862   1.399       .  A
C858        C859   1.401       .  A
C858        F863   1.358       .  S
C859        C860   1.426       .  A
C859        F865   1.355       .  S
C860        C861   1.426       .  A
C861        C862   1.400       .  A
C861        F864   1.355       .  S
C862        F866   1.358       .  S
C869        C870   1.407       .  A
C869        C874   1.403       .  A
C869        F887   1.357       .  S
C870        C875   1.486       .  S
C870        C871   1.405   1_655  A
C871        C872   1.400       .  A
C871        F876   1.358       .  S
C872        C873   1.411   1_455  A
C872        F888   1.359       .  S
C873        C874   1.407       .  A
C874        F877   1.358       .  S
C875        C878   1.405       .  A
C875        C882   1.407   1_655  A
C878        C879   1.398       .  A
C878        F883   1.358       .  S
C879        C880   1.407       .  A
C879        F885   1.358       .  S
C880        C881   1.409   1_655  A
C881        C882   1.405       .  A
C881        F884   1.358       .  S
C882        F886   1.358       .  S
C889        C890   1.406       .  A
C889        C894   1.398       .  A
C889        F907   1.358       .  S
C890        C895   1.486       .  S
C890        C891   1.407       .  A
C891        C892   1.399       .  A
C891        F896   1.358       .  S
C892        C893   1.407       .  A
C892        F908   1.358       .  S
C893        C894   1.409       .  A
C894        F897   1.358       .  S
C895        C898   1.406       .  A
C895        C902   1.407       .  A
C898        C899   1.401       .  A
C898        F903   1.359       .  S
C899        C900   1.412       .  A
C899        F905   1.357       .  S
C900        C901   1.405       .  A
C901        C902   1.396       .  A
C901        F904   1.358       .  S
C902        F906   1.357       .  S
C909        C910   1.403       .  A
C909        C914   1.402       .  A
C909        F927   1.358       .  S
C910        C915   1.496       .  S
C910        C911   1.402       .  A
C911        C912   1.407       .  A
C911        F916   1.358       .  S
C912        C913   1.431       .  A
C912        F928   1.354       .  S
C913        C914   1.421       .  A
C914        F917   1.357       .  S
C915        C918   1.411       .  A
C915        C922   1.405       .  A
C918        C919   1.410       .  A
C918        F923   1.357       .  S
C919        C920   1.407       .  A
C919        F925   1.357       .  S
C920        C921   1.409       .  A
C921        C922   1.399       .  A
C921        F924   1.359       .  S
C922        F926   1.358       .  S
C929        C930   1.407       .  A
C929        C934   1.397       .  A
C929        F947   1.358       .  S
C930        C935   1.488       .  S
C930        C931   1.408       .  A
C931        C932   1.403       .  A
C931        F936   1.358       .  S
C932        C933   1.407       .  A
C932        F948   1.357       .  S
C933        C934   1.407       .  A
C934        F937   1.358   1_565  S
C935        C938   1.407       .  A
C935        C942   1.408       .  A
C938        C939   1.397       .  A
C938        F943   1.358       .  S
C939        C940   1.408       .  A
C939        F945   1.358       .  S
C940        C941   1.408       .  A
C941        C942   1.403       .  A
C941        F944   1.357       .  S
C942        F946   1.358       .  S
C949        C950   1.405       .  A
C949        C954   1.401       .  A
C949        F967   1.358       .  S
C950        C955   1.480       .  S
C950        C951   1.405       .  A
C951        C952   1.395       .  A
C951        F956   1.358       .  S
C952        C953   1.408       .  A
C952        F968   1.358       .  S
C953        C954   1.409       .  A
C954        F957   1.358       .  S
C955        C958   1.407       .  A
C955        C962   1.403       .  A
C958        C959   1.404       .  A
C958        F963   1.357       .  S
C959        C960   1.407       .  A
C959        F965   1.357       .  S
C960        C961   1.408       .  A
C961        C962   1.393       .  A
C961        F964   1.358       .  S
C962        F966   1.359       .  S
C969        C970   1.407   1_565  A
C969        C974   1.403       .  A
C969        F987   1.357       .  S
C970        C975   1.484       .  S
C970        C971   1.402       .  A
C971        C972   1.400       .  A
C971        F976   1.358       .  S
C972        C973   1.411   1_545  A
C972        F988   1.358       .  S
C973        C974   1.407       .  A
C974        F977   1.357       .  S
C975        C978   1.401       .  A
C975        C982   1.399   1_545  A
C978        C979   1.404       .  A
C978        F983   1.358       .  S
C979        C980   1.422       .  A
C979        F985   1.357       .  S
C980        C981   1.427   1_545  A
C981        C982   1.400       .  A
C981        F984   1.357       .  S
C982        F986   1.358       .  S
C989        C990   1.405       .  A
C989        C994   1.397       .  A
C989       F1007   1.358       .  S
C990        C995   1.486       .  S
C990        C991   1.407       .  A
C991        C992   1.404       .  A
C991        F996   1.358       .  S
C992        C993   1.409       .  A
C992       F1008   1.357       .  S
C993        C994   1.410       .  A
C994        F997   1.358       .  S
C995        C998   1.407       .  A
C995       C1002   1.405       .  A
C998        C999   1.404       .  A
C998       F1003   1.358       .  S
C999       C1000   1.410       .  A
C999       F1005   1.358       .  S
C1000      C1001   1.409       .  A
C1001      C1002   1.395       .  A
C1001      F1004   1.358       .  S
C1002      F1006   1.358       .  S
C1009      C1010   1.407       .  A
C1009      C1014   1.395       .  A
C1009      F1027   1.358       .  S
C1010      C1015   1.483       .  S
C1010      C1011   1.405       .  A
C1011      C1012   1.400       .  A
C1011      F1016   1.358       .  S
C1012      C1013   1.409       .  A
C1012      F1028   1.358   1_545  S
C1013      C1014   1.407       .  A
C1014      F1017   1.358       .  S
C1015      C1018   1.405       .  A
C1015      C1022   1.407       .  A
C1018      C1019   1.398       .  A
C1018      F1023   1.358       .  S
C1019      C1020   1.408       .  A
C1019      F1025   1.357       .  S
C1020      C1021   1.406       .  A
C1021      C1022   1.398       .  A
C1021      F1024   1.358       .  S
C1022      F1026   1.358       .  S
C1029      C1030   1.406       .  A
C1029      C1034   1.402       .  A
C1029      F1047   1.358       .  S
C1030      C1035   1.485       .  S
C1030      C1031   1.404       .  A
C1031      C1032   1.402       .  A
C1031      F1036   1.358       .  S
C1032      C1033   1.412       .  A
C1032      F1048   1.358       .  S
C1033      C1034   1.409       .  A
C1034      F1037   1.357       .  S
C1035      C1038   1.402       .  A
C1035      C1042   1.399       .  A
C1038      C1039   1.400       .  A
C1038      F1043   1.358       .  S
C1039      C1040   1.421       .  A
C1039      F1045   1.357       .  S
C1040      C1041   1.427       .  A
C1041      C1042   1.399       .  A
C1041      F1044   1.356       .  S
C1042      F1046   1.358       .  S
C1049      C1050   1.404       .  A
C1049      C1054   1.398       .  A
C1049      F1067   1.358       .  S
C1050      C1055   1.483   1_455  S
C1050      C1051   1.408   1_455  A
C1051      C1052   1.404       .  A
C1051      F1056   1.358       .  S
C1052      C1053   1.407   1_655  A
C1052      F1068   1.357       .  S
C1053      C1054   1.408       .  A
C1054      F1057   1.358       .  S
C1055      C1058   1.403       .  A
C1055      C1062   1.407   1_655  A
C1058      C1059   1.394       .  A
C1058      F1063   1.358       .  S
C1059      C1060   1.409       .  A
C1059      F1065   1.358       .  S
C1060      C1061   1.409   1_655  A
C1061      C1062   1.405       .  A
C1061      F1064   1.358       .  S
C1062      F1066   1.357       .  S
C1069      C1070   1.406       .  A
C1069      C1074   1.397       .  A
C1069      F1087   1.358       .  S
C1070      C1075   1.477       .  S
C1070      C1071   1.403       .  A
C1071      C1072   1.396       .  A
C1071      F1076   1.358       .  S
C1072      C1073   1.407       .  A
C1072      F1088   1.357       .  S
C1073      C1074   1.407       .  A
C1074      F1077   1.358   1_545  S
C1075      C1078   1.402       .  A
C1075      C1082   1.406       .  A
C1078      C1079   1.394       .  A
C1078      F1083   1.358       .  S
C1079      C1080   1.408       .  A
C1079      F1085   1.357       .  S
C1080      C1081   1.409       .  A
C1081      C1082   1.398       .  A
C1081      F1084   1.358       .  S
C1082      F1086   1.358       .  S
C1089      C1090   1.406       .  A
C1089      C1094   1.402       .  A
C1089      F1107   1.358       .  S
C1090      C1095   1.481       .  S
C1090      C1091   1.405       .  A
C1091      C1092   1.395       .  A
C1091      F1096   1.358       .  S
C1092      C1093   1.407       .  A
C1092      F1108   1.359       .  S
C1093      C1094   1.408       .  A
C1094      F1097   1.358       .  S
C1095      C1098   1.406       .  A
C1095      C1102   1.404       .  A
C1098      C1099   1.404       .  A
C1098      F1103   1.358       .  S
C1099      C1100   1.410       .  A
C1099      F1105   1.358       .  S
C1100      C1101   1.407       .  A
C1101      C1102   1.393       .  A
C1101      F1104   1.358       .  S
C1102      F1106   1.359       .  S
C1109      C1110   1.410       .  A
C1109      C1114   1.403       .  A
C1109      F1127   1.357       .  S
C1110      C1115   1.497       .  S
C1110      C1111   1.407       .  A
C1111      C1112   1.403       .  A
C1111      F1116   1.358       .  S
C1112      C1113   1.412       .  A
C1112      F1128   1.358       .  S
C1113      C1114   1.406       .  A
C1114      F1117   1.357       .  S
C1115      C1118   1.406       .  A
C1115      C1122   1.401       .  A
C1118      C1119   1.405       .  A
C1118      F1123   1.358       .  S
C1119      C1120   1.425       .  A
C1119      F1125   1.356       .  S
C1120      C1121   1.425       .  A
C1121      C1122   1.400       .  A
C1121      F1124   1.354       .  S
C1122      F1126   1.358       .  S
