geometry optimzed in LAMMPS
_audit_creation_date              2020-11-30 
_audit_creation_method            'lammps2cif' 
_symmetry_space_group_name_H-M    'P1' 
_symmetry_Int_Tables_number       1 
_symmetry_cell_setting            triclinic 
loop_ 
_symmetry_equiv_pos_as_xyz 
  x,y,z 
_cell_length_a                    41.02498272 
_cell_length_b                    40.457866375727704 
_cell_length_c                    45.939325192943 
_cell_angle_alpha                 89.37459083381684 
_cell_angle_beta                  90.00416705080569 
_cell_angle_gamma                 120.35188550744027 
loop_ 
_atom_site_label 
_atom_site_type_symbol 
_atom_site_fract_x 
_atom_site_fract_y 
_atom_site_fract_z 
_atom_site_charge 
O1          O  0.39094632  0.23442085  0.87816843    -0.77400
C2          C  0.37585980  0.11958929  0.88331642     0.83600
O3          O  0.39388210  0.19348994  0.77751438    -0.78500
O4          O  0.29578040  0.07331054  0.81143419    -0.80000
O5          O  0.25804332  0.14762586  0.87157624    -0.79800
O6          O  0.33717674  0.23469070  0.87217769    -0.78400
Zn7        Zn  0.38523301  0.19135253  0.85175415     1.55700
O8          O  0.25831138  0.09291820  0.86690879    -0.79800
Cd9        Cd  0.30456959  0.18676743  0.84731679     1.59700
Cd10       Cd  0.33788430  0.16623339  0.79059082     1.59600
O11         O  0.28526070  0.20402260  0.81184059    -0.79800
O12         O  0.33511685  0.16391958  0.83425851    -1.90300
Cd13       Cd  0.30902422  0.10898197  0.84657741     1.59900
O14         O  0.31476624  0.19749455  0.77346785    -0.79800
O15         O  0.34189759  0.09864028  0.87495949    -0.78400
C16         C  0.42416191  0.21350564  0.79183587     0.84100
C17         C  0.37017156  0.24898378  0.88289003     0.83800
O18         O  0.39585759  0.15469680  0.87542280    -0.77400
C19         C  0.24309848  0.11164261  0.87587647     0.84600
O20         O  0.42429506  0.21594947  0.81950872    -0.77500
C21         C  0.29318736  0.20807387  0.78471456     0.84700
C22         C  0.29459989  0.07840288  0.78414614     0.85000
O23         O  0.30788112  0.11166236  0.77273114    -0.79900
C24         C  0.16617457  0.32895682  0.68560080    -0.01400
C25         C  0.00159070  0.99794780  0.98385243    -0.01400
O26         O  0.50063708  0.42740784  0.46337381    -0.77400
C27         C  0.08917002  0.04498281  0.45186060     0.83600
O28         O  0.03010847  0.47466829  0.56162874    -0.78500
O29         O  0.04007991  0.09022549  0.51390713    -0.80000
O30         O  0.43568845  0.99862808  0.45536816    -0.79800
O31         O  0.44322938  0.42067119  0.46296369    -0.78400
Zn32       Zn  0.03201188  0.47525844  0.48695670     1.55700
O33         O  0.48819858  0.05583185  0.45527090    -0.79800
Cd34       Cd  0.44955830  0.46752947  0.48430496     1.59700
Cd35       Cd  0.50055583  0.49980156  0.54326118     1.59600
O36         O  0.41101048  0.44641963  0.51809652    -0.79800
O37         O  0.00218944  0.49783758  0.49936897    -1.90300
Cd38       Cd  0.02534434  0.05026841  0.48183536     1.59900
O39         O  0.44426793  0.47035161  0.55873702    -0.79800
O40         O  0.07271275  0.06389173  0.45690865    -0.78400
C41         C  0.05024501  0.46283196  0.54934344     0.84100
C42         C  0.46594454  0.40926923  0.45619264     0.83800
O43         O  0.07675532  0.01141746  0.46223736    -0.77400
C44         C  0.45457444  0.03346524  0.44683534     0.84600
O45         O  0.05307904  0.46237308  0.52178707    -0.77500
C46         C  0.41285882  0.45009349  0.54564116     0.84700
C47         C  0.03966801  0.08880111  0.54159676     0.85000
O48         O  0.02681713  0.05729561  0.55590857    -0.79900
C49         C  0.33628164  0.16476948  0.35252182    -0.01400
C50         C  0.16726205  0.33164655  0.64977444    -0.01400
O51         O  0.17806469  0.26877909  0.20380200    -0.77400
C52         C  0.08184683  0.28721624  0.21584031     0.83600
O53         O  0.13500285  0.27784976  0.10858327    -0.78500
O54         O  0.12179019  0.37656927  0.14735455    -0.80000
O55         O  0.22922798  0.40726563  0.20818768    -0.79800
O56         O  0.23145185  0.32467439  0.20902768    -0.78400
Zn57       Zn  0.14166080  0.27924206  0.18231454     1.55700
O58         O  0.17341490  0.40420734  0.20862269    -0.79800
Cd59       Cd  0.22038364  0.36078424  0.18336257     1.59700
Cd60       Cd  0.16815815  0.33258624  0.12468806     1.59600
O61         O  0.25835858  0.38081749  0.14854119    -0.79800
O62         O  0.16744132  0.33200771  0.16832274    -1.90300
Cd63       Cd  0.14016596  0.35801822  0.18213956     1.59900
O64         O  0.22288795  0.35511677  0.10907139    -0.79800
O65         O  0.09349760  0.32092718  0.20609689    -0.78400
C66         C  0.11947421  0.24526181  0.12130094     0.84100
C67         C  0.21155074  0.28857585  0.21343773     0.83800
O68         O  0.09831539  0.26859438  0.20958958    -0.77400
C69         C  0.20785094  0.41991690  0.21633727     0.84600
O70         O  0.12070931  0.24185646  0.14884580    -0.77500
C71         C  0.25497708  0.37468189  0.12118587     0.84700
C72         C  0.12725812  0.37824650  0.11995377     0.85000
O73         O  0.14621703  0.36498134  0.10801917    -0.79900
C74         C  0.00152225  0.99899273  0.01959741    -0.01400
C75         C  0.33632949  0.16801678  0.31705991    -0.01400
C76         C  0.40988163  0.47013718  0.06607022     0.17000
C77         C  0.38514412  0.46670898  0.08839840    -0.32000
C78         C  0.34929361  0.43384307  0.08901735     0.21400
C79         C  0.33815920  0.40597891  0.06791802     0.03600
C80         C  0.36347237  0.40903284  0.04595567    -0.21700
C81         C  0.39983405  0.44168884  0.04578436     0.12800
S82         S  0.45452880  0.50735603  0.06226266    -0.05400
C83         C  0.46143655  0.48482762  0.03274460    -0.08900
C84         C  0.42929127  0.44920557  0.02731448    -0.25500
S85         S  0.29259824  0.36913671  0.07194947    -0.02700
C86         C  0.28929666  0.39095881  0.10297763    -0.16100
C87         C  0.32167245  0.42511801  0.10940636    -0.14100
H88         H  0.39362029  0.48860646  0.10474826     0.21200
H89         H  0.35528947  0.38687685  0.02987337     0.17300
H90         H  0.42744009  0.42876792  0.01160009     0.19800
H91         H  0.32465077  0.44288995  0.12783777     0.13200
C92         C  0.06623161  0.16148302  0.06879346     0.17000
C93         C  0.04326245  0.13555091  0.04737109    -0.32000
C94         C  0.04412027  0.10139369  0.04458146     0.21400
C95         C  0.06729245  0.09402019  0.06195716     0.03600
C96         C  0.09008518  0.11970636  0.08327877    -0.21700
C97         C  0.08855711  0.15319607  0.08657947     0.12800
S98         S  0.06963560  0.20456983  0.07591797    -0.05400
C99         C  0.10057810  0.21060703  0.10355400    -0.08900
C100        C  0.10780524  0.18091092  0.10682348    -0.25500
S101        S  0.06275564  0.05050496  0.05696118    -0.02700
C102        C  0.02751544  0.04011110  0.03151014    -0.16100
C103        C  0.02168821  0.07105319  0.02687780    -0.14100
H104        H  0.02503042  0.14137881  0.03390742     0.21200
H105        H  0.10751214  0.11333465  0.09726451     0.17300
H106        H  0.12691950  0.18014216  0.12272124     0.19800
H107        H  0.99977363  0.07034736  0.01342133     0.13200
C108        C  0.03177502  0.43817173  0.06785867     0.17000
C109        C  0.03679496  0.41833615  0.09084541    -0.32000
C110        C  0.06820440  0.41354040  0.08954653     0.21400
C111        C  0.09307831  0.42699413  0.06610907     0.03600
C112        C  0.08848105  0.44773158  0.04344286    -0.21700
C113        C  0.05746460  0.45336463  0.04517944     0.12800
S114        S  0.99594331  0.44748832  0.06572653    -0.05400
C115        C  0.01565125  0.47343325  0.03371653    -0.08900
C116        C  0.04926460  0.47442205  0.02623665    -0.25500
S117        S  0.12860360  0.41668419  0.06830858    -0.02700
C118        C  0.11038062  0.39547856  0.10167635    -0.16100
C119        C  0.07826223  0.39591120  0.11016970    -0.14100
H120        H  0.01727777  0.40743257  0.10907370     0.21200
H121        H  0.10832176  0.45923987  0.02543307     0.17300
H122        H  0.06788385  0.49023385  0.00845407     0.19800
H123        H  0.06288567  0.38364060  0.13029620     0.13200
C124        C  0.24443085  0.22335451  0.24657708     0.17000
C125        C  0.25134822  0.19350695  0.25263318    -0.32000
C126        C  0.27607927  0.19850719  0.27536174     0.21400
C127        C  0.29264096  0.23140751  0.29171808     0.03600
C128        C  0.28621812  0.26172605  0.28546376    -0.21700
C129        C  0.26201247  0.25705187  0.26224088     0.12800
S130        S  0.21521251  0.22231981  0.21987040    -0.05400
C131        C  0.22748875  0.26823925  0.22915864    -0.08900
C132        C  0.25278819  0.28335512  0.25202225    -0.25500
S133        S  0.32231759  0.23180856  0.31774825    -0.02700
C134        C  0.31327988  0.18691771  0.30636097    -0.16100
C135        C  0.28790349  0.17352873  0.28315892    -0.14100
H136        H  0.23830540  0.16757318  0.23988942     0.21200
H137        H  0.29990495  0.28791534  0.29779980     0.17300
H138        H  0.26335375  0.31163799  0.26084586     0.19800
H139        H  0.27985165  0.14787960  0.27090885     0.13200
C140        C  0.30565843  0.07057171  0.27680999     0.17000
C141        C  0.30429097  0.04173636  0.25947800    -0.32000
C142        C  0.26895371  0.50943833  0.25466276     0.21400
C143        C  0.23622780  0.50605540  0.26634876     0.03600
C144        C  0.23785248  0.03452429  0.28464963    -0.21700
C145        C  0.27355391  0.06682872  0.28973092     0.12800
S146        S  0.34513135  0.11337503  0.28220752    -0.05400
C147        C  0.31927748  0.12735630  0.30351859    -0.08900
C148        C  0.28118773  0.09855001  0.30564488    -0.25500
S149        S  0.19578340  0.46625779  0.25513226    -0.02700
C150        C  0.22355091  0.45394433  0.23500785    -0.16100
C151        C  0.26194836  0.47944969  0.23712844    -0.14100
H152        H  0.32962370  0.04489770  0.24943479     0.21200
H153        H  0.21243161  0.03209046  0.29386111     0.17300
H154        H  0.25943997  0.10147025  0.31644884     0.19800
H155        H  0.28359661  0.47686925  0.22562009     0.13200
C156        C  0.99743370  0.23252082  0.26759975     0.17000
C157        C  0.47014902  0.20727306  0.28759771    -0.32000
C158        C  0.43755562  0.20989614  0.29116519     0.21400
C159        C  0.43239461  0.23622048  0.27557258     0.03600
C160        C  0.46005769  0.26225980  0.25628819    -0.21700
C161        C  0.49256780  0.25968623  0.25268419     0.12800
S162        S  0.03762150  0.23221054  0.25834009    -0.05400
C163        C  0.04807271  0.26946577  0.23450319    -0.08900
C164        C  0.02175109  0.28129101  0.23396485    -0.25500
S165        S  0.38932962  0.23162110  0.28028448    -0.02700
C166        C  0.37702395  0.19339706  0.30427567    -0.16100
C167        C  0.40676078  0.18612208  0.30795043    -0.14100
H168        H  0.97360084  0.18582065  0.29914830     0.21200
H169        H  0.45586062  0.28270184  0.24390355     0.17300
H170        H  0.02339339  0.30383634  0.22001045     0.19800
H171        H  0.40539830  0.16258294  0.32008212     0.13200
C172        C  0.17488412  0.09965263  0.40111468     0.17000
C173        C  0.20260924  0.12527846  0.38155373    -0.32000
C174        C  0.23506048  0.12244082  0.37795270     0.21400
C175        C  0.23967655  0.09545482  0.39310235     0.03600
C176        C  0.21157252  0.06908609  0.41205477    -0.21700
C177        C  0.17914925  0.07190479  0.41571522     0.12800
S178        S  0.13481392  0.10022556  0.41017568    -0.05400
C179        C  0.12344470  0.06233911  0.43360352    -0.08900
C180        C  0.14947264  0.05006742  0.43413434    -0.25500
S181        S  0.28267032  0.09973515  0.38825989    -0.02700
C182        C  0.29543153  0.13845519  0.36473301    -0.16100
C183        C  0.26617287  0.14647846  0.36151204    -0.14100
H184        H  0.19954683  0.14720058  0.37030523     0.21200
H185        H  0.21535795  0.04814393  0.42413579     0.17300
H186        H  0.14728246  0.02707287  0.44785070     0.19800
H187        H  0.26804658  0.17048373  0.34971074     0.13200
C188        C  0.43522781  0.32495021  0.40502588     0.17000
C189        C  0.43101578  0.29995778  0.38255394    -0.32000
C190        C  0.39655932  0.26525463  0.38101681     0.21400
C191        C  0.36795892  0.25581123  0.40101605     0.03600
C192        C  0.37178831  0.28090706  0.42312346    -0.21700
C193        C  0.40593681  0.31561027  0.42453244     0.12800
S194        S  0.47480460  0.36831595  0.41110241    -0.05400
C195        C  0.45094355  0.37395367  0.43964818    -0.08900
C196        C  0.41469528  0.34372621  0.44428072    -0.25500
S197        S  0.33004953  0.21133501  0.39712253    -0.02700
C198        C  0.35208797  0.20437465  0.36739829    -0.16100
C199        C  0.38765315  0.23650568  0.36165595    -0.14100
H200        H  0.45368363  0.30703000  0.36715859     0.21200
H201        H  0.34932233  0.27348984  0.43878859     0.17300
H202        H  0.39564569  0.34260235  0.46110754     0.19800
H203        H  0.40778283  0.23832907  0.34573267     0.13200
C204        C  0.40568286  0.13422226  0.38665607     0.17000
C205        C  0.43287290  0.13218768  0.40355179    -0.32000
C206        C  0.42917136  0.09621009  0.40764552     0.21400
C207        C  0.40000010  0.06359011  0.39518855     0.03600
C208        C  0.37389783  0.06611932  0.37680820    -0.21700
C209        C  0.37746007  0.10236371  0.37294755     0.12800
S210        S  0.40178132  0.17374896  0.38367198    -0.05400
C211        C  0.36133550  0.14809709  0.36287169    -0.08900
C212        C  0.35301278  0.11040672  0.35832616    -0.25500
S213        S  0.39810481  0.02202126  0.40617928    -0.02700
C214        C  0.43732698  0.04935048  0.42730937    -0.16100
C215        C  0.45096665  0.08833757  0.42552854    -0.14100
H216        H  0.45474079  0.15723132  0.41443088     0.21200
H217        H  0.35078679  0.04077857  0.36719654     0.17300
H218        H  0.32850497  0.08884629  0.34696738     0.19800
H219        H  0.47467580  0.10977796  0.43779563     0.13200
C220        C  0.31418664  0.38543126  0.57866721     0.17000
C221        C  0.27681932  0.35647885  0.58413176    -0.32000
C222        C  0.25732259  0.36185304  0.60693245     0.21400
C223        C  0.27411283  0.39461736  0.62343002     0.03600
C224        C  0.31188869  0.42336473  0.61843861    -0.21700
C225        C  0.33160277  0.41792160  0.59569682     0.12800
S226        S  0.34140484  0.38519927  0.55073829    -0.05400
C227        C  0.37714434  0.42906500  0.56225590    -0.08900
C228        C  0.36813687  0.44292975  0.58664753    -0.25500
S229        S  0.24445773  0.39651272  0.64848041    -0.02700
C230        C  0.20857574  0.35161332  0.63764395    -0.16100
C231        C  0.22045439  0.33735574  0.61483967    -0.14100
H232        H  0.26326227  0.33114786  0.57079037     0.21200
H233        H  0.32506540  0.44911326  0.63132654     0.17300
H234        H  0.38671167  0.47036436  0.59646739     0.19800
H235        H  0.20296371  0.31081466  0.60358632     0.13200
C236        C  0.07715415  0.18935603  0.57236812     0.17000
C237        C  0.08738802  0.22754356  0.57762018    -0.32000
C238        C  0.10985859  0.24527103  0.60205092     0.21400
C239        C  0.12225570  0.22612579  0.61976972     0.03600
C240        C  0.11160203  0.18788801  0.61489161    -0.21700
C241        C  0.08841976  0.16984052  0.59100773     0.12800
S242        S  0.05133156  0.16308481  0.54341743    -0.05400
C243        C  0.05487437  0.12516230  0.55713981    -0.08900
C244        C  0.07523409  0.13279547  0.58264648    -0.25500
S245        S  0.15152215  0.25322400  0.64662767    -0.03600
C246        C  0.14533764  0.29102151  0.63596332    -0.16100
C247        C  0.12284399  0.28215105  0.61099841    -0.14100
H248        H  0.07840016  0.24277963  0.56324734     0.21200
H249        H  0.12120264  0.17294370  0.62899925     0.17300
H250        H  0.08113805  0.11274571  0.59389176     0.19800
H251        H  0.11697272  0.30184859  0.59922638     0.13200
C252        C  0.11638607  0.43235421  0.58361097     0.17000
C253        C  0.14590667  0.42518735  0.58935983    -0.32000
C254        C  0.13944335  0.39684534  0.61019940     0.21400
C255        C  0.10511919  0.37662056  0.62445189     0.03600
C256        C  0.07580091  0.38424581  0.61923517    -0.21700
C257        C  0.08226442  0.41269078  0.59851944     0.12800
S258        S  0.11759559  0.46308488  0.55735910    -0.05400
C259        C  0.07190125  0.44987768  0.56680263    -0.08900
C260        C  0.05671425  0.42308781  0.58928660    -0.25500
S261        S  0.10188394  0.34155220  0.64692980    -0.02700
C262        C  0.14823632  0.35450557  0.63846612    -0.16100
C263        C  0.16409437  0.38461548  0.61798085    -0.14100
H264        H  0.17243078  0.44038737  0.57756498     0.21200
H265        H  0.04883216  0.36805424  0.63032211     0.17300
H266        H  0.02798436  0.41043468  0.59730019     0.19800
H267        H  0.19174536  0.39635783  0.60813788     0.13200
C268        C  0.45692683  0.39000255  0.95820467     0.17000
C269        C  0.45048868  0.35331542  0.95168784    -0.32000
C270        C  0.42259865  0.33187543  0.93108147     0.21400
C271        C  0.40136332  0.34600050  0.91836390     0.03600
C272        C  0.40816612  0.38280477  0.92474168    -0.21700
C273        C  0.43684616  0.40466052  0.94465917     0.12800
S274        S  0.49051476  0.42114132  0.98125047    -0.05400
C275        C  0.47859521  0.45575145  0.97260291    -0.08900
C276        C  0.44931488  0.44200356  0.95218460    -0.25500
S277        S  0.36883475  0.31587985  0.89397314    -0.02700
C278        C  0.38484174  0.28437389  0.89996827    -0.16100
C279        C  0.41352266  0.29657526  0.92038373    -0.14100
H280        H  0.46710137  0.34237553  0.96171774     0.21200
H281        H  0.39231301  0.39422521  0.91413899     0.17300
H282        H  0.43825503  0.45839166  0.94196412     0.19800
H283        H  0.42724203  0.28074260  0.92676028     0.13200
C284        C  0.10682187  0.05778132  0.95443232     0.17000
C285        C  0.14346972  0.08705414  0.94756194    -0.32000
C286        C  0.16184844  0.08106946  0.92434786     0.21400
C287        C  0.14484507  0.04707259  0.90904542     0.03600
C288        C  0.10775739  0.01807662  0.91562291    -0.21700
C289        C  0.08908293  0.02449342  0.93857427     0.12800
S290        S  0.07980591  0.06017124  0.98122096    -0.05400
C291        C  0.04250194  0.01567863  0.97112808    -0.08900
C292        C  0.05245701  0.00070326  0.94754732    -0.25500
S293        S  0.17267888  0.04496477  0.88234727    -0.02700
C294        C  0.20688659  0.09083107  0.89139301    -0.16100
C295        C  0.19723137  0.10653224  0.91402894    -0.14100
H296        H  0.15693211  0.11350095  0.95962359     0.21200
H297        H  0.09401628  0.99184783  0.90330549     0.17300
H298        H  0.03371834  0.47439629  0.93648387     0.19800
H299        H  0.21531718  0.13488153  0.92265845     0.13200
C300        C  0.40443762  0.06274961  0.93445793     0.17000
C301        C  0.40560275  0.03553475  0.95304771    -0.32000
C302        C  0.44087654  0.03861340  0.95774095     0.21400
C303        C  0.47312897  0.06730819  0.94441389     0.03600
C304        C  0.47233407  0.09541977  0.92690579    -0.21700
C305        C  0.43725187  0.09240986  0.92217746     0.12800
S306        S  0.36424460  0.06186034  0.92344731    -0.05400
C307        C  0.39209496  0.10228701  0.90254645    -0.08900
C308        C  0.43045279  0.11557946  0.90426432    -0.25500
S309        S  0.51180191  0.06323161  0.94938399    -0.02700
C310        C  0.48523221  0.02235041  0.97080468    -0.16100
C311        C  0.44768259  0.01360727  0.97346969    -0.14100
H312        H  0.38001565  0.01222473  0.96253969     0.21200
H313        H  0.49773935  0.11774792  0.91644083     0.17300
H314        H  0.45204829  0.13991332  0.89210361     0.19800
H315        H  0.42546656  0.98864512  0.98436397     0.13200
C316        C  0.19559121  0.26375088  0.72930593     0.17000
C317        C  0.19895794  0.24104285  0.75084528    -0.32000
C318        C  0.23222796  0.23954893  0.75136035     0.21400
C319        C  0.26056522  0.25881597  0.73076959     0.03600
C320        C  0.25718351  0.28183855  0.70917492    -0.21700
C321        C  0.22409647  0.28419093  0.70921759     0.12800
S322        S  0.15858566  0.27106596  0.72678160    -0.05400
C323        C  0.18115481  0.30312883  0.69805598    -0.08900
C324        C  0.21638230  0.30706554  0.69153787    -0.25500
S325        S  0.29860970  0.25265764  0.73536464    -0.02700
C326        C  0.27635986  0.22505883  0.76587387    -0.16100
C327        C  0.24126062  0.22056186  0.77165122    -0.14100
H328        H  0.17695243  0.22596421  0.76701730     0.21200
H329        H  0.27962122  0.29781930  0.69350016     0.17300
H330        H  0.23643495  0.32676011  0.67579216     0.19800
H331        H  0.22324281  0.20417332  0.78979040     0.13200
C332        C  0.06004832  0.26951554  0.71226280     0.17000
C333        C  0.02261157  0.24095157  0.71791453    -0.32000
C334        C  0.00406038  0.24644185  0.74135150     0.21400
C335        C  0.52200321  0.27888171  0.75840589     0.03600
C336        C  0.05909008  0.30786506  0.75219312    -0.21700
C337        C  0.07760337  0.30231456  0.72874562     0.12800
S338        S  0.08848602  0.26670138  0.68672905    -0.05400
C339        C  0.12508098  0.31125879  0.69743719    -0.08900
C340        C  0.11433500  0.32622948  0.72044269    -0.25500
S341        S  0.49577214  0.27878989  0.78725897    -0.02700
C342        C  0.46010560  0.23482131  0.77596628    -0.16100
C343        C  0.46820398  0.22129203  0.75105307    -0.14100
H344        H  0.00891628  0.21511809  0.70513518     0.21200
H345        H  0.07325587  0.33314872  0.76553904     0.17300
H346        H  0.13265342  0.35236371  0.73188512     0.19800
H347        H  0.44930982  0.19399772  0.74115408     0.13200
C348        C  0.23807489  0.99368559  0.73320344     0.17000
C349        C  0.21320079  0.46727915  0.71280546    -0.32000
C350        C  0.20957680  0.43080737  0.71249493     0.21400
C351        C  0.22998015  0.42148101  0.73140464     0.03600
C352        C  0.25398159  0.44734099  0.75213060    -0.21700
C353        C  0.25736410  0.48346545  0.75264296     0.12800
S354        S  0.24731300  0.03967435  0.73704822    -0.05400
C355        C  0.27654243  0.04440493  0.76565764    -0.08900
C356        C  0.27889599  0.01210406  0.77162874    -0.25500
S357        S  0.22241573  0.37660776  0.72762212    -0.02700
C358        C  0.19046318  0.36879207  0.69991106    -0.16100
C359        C  0.18645834  0.40076779  0.69483337    -0.14100
H360        H  0.19760507  0.97481870  0.69784247     0.21200
H361        H  0.26934657  0.43959682  0.76725185     0.17300
H362        H  0.29552312  0.00974810  0.78897192     0.19800
H363        H  0.16693936  0.40209611  0.67983491     0.13200
O364        O  0.39085903  0.73437941  0.87822744    -0.77400
C365        C  0.37586129  0.61953083  0.88331840     0.83600
O366        O  0.39392845  0.69338218  0.77758369    -0.78500
O367        O  0.29576084  0.57326784  0.81142277    -0.80000
O368        O  0.25800323  0.64751455  0.87156862    -0.79800
O369        O  0.33707406  0.73461004  0.87220822    -0.78400
Zn370      Zn  0.38520505  0.69132120  0.85181515     1.55700
O371        O  0.25834197  0.59283577  0.86695758    -0.79800
Cd372      Cd  0.30452636  0.68668725  0.84732026     1.59700
Cd373      Cd  0.33792483  0.66620470  0.79062405     1.59600
O374        O  0.28524644  0.70393111  0.81181577    -0.79800
O375        O  0.33511025  0.66386967  0.83428890    -1.90300
Cd376      Cd  0.30902919  0.60892026  0.84657969     1.59900
O377        O  0.31489164  0.69753215  0.77347967    -0.79800
O378        O  0.34192355  0.59856362  0.87491697    -0.78400
C379        C  0.42419390  0.71341412  0.79191624     0.84100
C380        C  0.37005930  0.74891759  0.88294262     0.83800
O381        O  0.39583052  0.65466497  0.87548509    -0.77400
C382        C  0.24310331  0.61154298  0.87590830     0.84600
O383        O  0.42429774  0.71590544  0.81958517    -0.77500
C384        C  0.29325285  0.70805116  0.78470217     0.84700
C385        C  0.29458453  0.57838581  0.78413865     0.85000
O386        O  0.30788040  0.61165533  0.77274095    -0.79900
C387        C  0.16620160  0.82892680  0.68564634    -0.01400
C388        C  0.00161431  0.49794367  0.98388067    -0.01400
O389        O  0.50058909  0.92741854  0.46333715    -0.77400
C390        C  0.08913709  0.54496921  0.45189465     0.83600
O391        O  0.03020958  0.97469157  0.56159034    -0.78500
O392        O  0.04012732  0.59021062  0.51394446    -0.80000
O393        O  0.43567985  0.49860796  0.45539008    -0.79800
O394        O  0.44317898  0.92068099  0.46300517    -0.78400
Zn395      Zn  0.03201884  0.97526063  0.48691451     1.55700
O396        O  0.48815491  0.55584162  0.45535785    -0.79800
Cd397      Cd  0.44956295  0.96757599  0.48431927     1.59700
Cd398      Cd  0.50062266  0.99981927  0.54324860     1.59600
O399        O  0.41104246  0.94652832  0.51813176    -0.79800
O400        O  0.00221723  0.99785917  0.49935109    -1.90300
Cd401      Cd  0.02532100  0.55025125  0.48186958     1.59900
O402        O  0.44434295  0.97037437  0.55876555    -0.79800
O403        O  0.07265440  0.56385999  0.45691157    -0.78400
C404        C  0.05030970  0.96281969  0.54928995     0.84100
C405        C  0.46588130  0.90927749  0.45619678     0.83800
O406        O  0.07675099  0.51142353  0.46230016    -0.77400
C407        C  0.45454104  0.53346719  0.44690632     0.84600
O408        O  0.05310465  0.96234415  0.52173007    -0.77500
C409        C  0.41291495  0.95016832  0.54567956     0.84700
C410        C  0.03969221  0.58878383  0.54163357     0.85000
O411        O  0.02677774  0.55727078  0.55594399    -0.79900
C412        C  0.33623593  0.66475724  0.35257377    -0.01400
C413        C  0.16730470  0.83163274  0.64982002    -0.01400
O414        O  0.17805810  0.76877984  0.20380849    -0.77400
C415        C  0.08178446  0.78716309  0.21581782     0.83600
O416        O  0.13500945  0.77786815  0.10858151    -0.78500
O417        O  0.12173800  0.87649971  0.14728804    -0.80000
O418        O  0.22915215  0.90728046  0.20816171    -0.79800
O419        O  0.23142598  0.82468394  0.20907080    -0.78400
Zn420      Zn  0.14164785  0.77924083  0.18232140     1.55700
O421        O  0.17332829  0.90420525  0.20857079    -0.79800
Cd422      Cd  0.22035968  0.86078831  0.18337889     1.59700
Cd423      Cd  0.16818520  0.83259453  0.12468976     1.59600
O424        O  0.25836815  0.88085024  0.14857001    -0.79800
O425        O  0.16742403  0.83200360  0.16832462    -1.90300
Cd426      Cd  0.14009724  0.85797782  0.18210757     1.59900
O427        O  0.22292111  0.85512669  0.10909472    -0.79800
O428        O  0.09340974  0.82086163  0.20605381    -0.78400
C429        C  0.11945163  0.74528126  0.12130130     0.84100
C430        C  0.21153353  0.78857939  0.21346551     0.83800
O431        O  0.09829161  0.76857020  0.20959623    -0.77400
C432        C  0.20776853  0.91993777  0.21628144     0.84600
O433        O  0.12068282  0.74187305  0.14884645    -0.77500
C434        C  0.25500306  0.87471447  0.12121406     0.84700
C435        C  0.12727200  0.87822047  0.11989360     0.85000
O436        O  0.14628644  0.86500387  0.10798379    -0.79900
C437        C  0.00151088  0.49899789  0.01962255    -0.01400
C438        C  0.33628673  0.66798352  0.31710979    -0.01400
C439        C  0.40993711  0.97014754  0.06611377     0.17000
C440        C  0.38521405  0.96671393  0.08845784    -0.32000
C441        C  0.34933728  0.93387994  0.08905422     0.21400
C442        C  0.33816715  0.90605789  0.06791708     0.03600
C443        C  0.36346115  0.90911883  0.04593636    -0.21700
C444        C  0.39984713  0.94173644  0.04578852     0.12800
S445        S  0.45461300  0.00732233  0.06232800    -0.05400
C446        C  0.46146404  0.98483382  0.03275280    -0.08900
C447        C  0.42928811  0.94924360  0.02730345    -0.25500
S448        S  0.29259192  0.86924397  0.07193139    -0.02700
C449        C  0.28932688  0.89101009  0.10300560    -0.16100
C450        C  0.32172579  0.92514028  0.10945841    -0.14100
H451        H  0.39372201  0.98857951  0.10483783     0.21200
H452        H  0.35524660  0.88699241  0.02982405     0.17300
H453        H  0.42739812  0.92882128  0.01155905     0.19800
H454        H  0.32472958  0.94287872  0.12791923     0.13200
C455        C  0.06621322  0.66151527  0.06878203     0.17000
C456        C  0.04327801  0.63559569  0.04733880    -0.32000
C457        C  0.04409559  0.60141097  0.04458868     0.21400
C458        C  0.06720402  0.59400739  0.06201689     0.03600
C459        C  0.08994235  0.61966776  0.08336832    -0.21700
C460        C  0.08844961  0.65317896  0.08663163     0.12800
S461        S  0.06969156  0.70464854  0.07585501    -0.05400
C462        C  0.10053370  0.71062686  0.10355799    -0.08900
C463        C  0.10767309  0.68088060  0.10688623    -0.25500
S464        S  0.06266892  0.55049363  0.05703818    -0.02700
C465        C  0.02748987  0.54011980  0.03153623    -0.16100
C466        C  0.02168839  0.57107501  0.02687196    -0.14100
H467        H  0.02510894  0.64145768  0.03382575     0.21200
H468        H  0.10731102  0.61326646  0.09739771     0.17300
H469        H  0.12672182  0.68007230  0.12282794     0.19800
H470        H  0.99980686  0.57038450  0.01338294     0.13200
C471        C  0.03175227  0.93805494  0.06773428     0.17000
C472        C  0.03674093  0.91816736  0.09069605    -0.32000
C473        C  0.06818377  0.91342874  0.08942141     0.21400
C474        C  0.09312038  0.92697825  0.06602460     0.03600
C475        C  0.08854594  0.94775840  0.04337621    -0.21700
C476        C  0.05749467  0.95334194  0.04509423     0.12800
S477        S  0.99590097  0.94733968  0.06560452    -0.05400
C478        C  0.01567389  0.97341686  0.03365812    -0.08900
C479        C  0.04931001  0.97444559  0.02618229    -0.25500
S480        S  0.12869428  0.91673916  0.06826291    -0.02700
C481        C  0.11039964  0.89543865  0.10159427    -0.16100
C482        C  0.07822452  0.89578477  0.11004292    -0.14100
H483        H  0.01718081  0.90719388  0.10889555     0.21200
H484        H  0.10843516  0.95934592  0.02540066     0.17300
H485        H  0.06795887  0.99033090  0.00843163     0.19800
H486        H  0.06280073  0.88345103  0.13014178     0.13200
C487        C  0.24437232  0.72332436  0.24663028     0.17000
C488        C  0.25127043  0.69346426  0.25269587    -0.32000
C489        C  0.27601453  0.69846367  0.27541479     0.21400
C490        C  0.29260360  0.73137860  0.29175459     0.03600
C491        C  0.28619648  0.76170589  0.28549344    -0.21700
C492        C  0.26198148  0.75703342  0.26227877     0.12800
S493        S  0.21515225  0.72229757  0.21992715    -0.05400
C494        C  0.22746429  0.76823534  0.22919422    -0.08900
C495        C  0.25277603  0.78334898  0.25205125    -0.25500
S496        S  0.32229648  0.73178703  0.31777071    -0.02700
C497        C  0.31323329  0.68687993  0.30640302    -0.16100
C498        C  0.28783220  0.67347754  0.28321678    -0.14100
H499        H  0.23820389  0.66751792  0.23996106     0.21200
H500        H  0.29990872  0.78790787  0.29781897     0.17300
H501        H  0.26336627  0.81164305  0.26086481     0.19800
H502        H  0.27975853  0.64781117  0.27097964     0.13200
C503        C  0.30567725  0.57048191  0.27696666     0.17000
C504        C  0.30433806  0.54162564  0.25967656    -0.32000
C505        C  0.26890114  0.00954295  0.25449366     0.21400
C506        C  0.23619321  0.00614087  0.26623449     0.03600
C507        C  0.23785857  0.53445091  0.28473470    -0.21700
C508        C  0.27355153  0.56675770  0.28983352     0.12800
S509        S  0.34513726  0.61329841  0.28235562    -0.05400
C510        C  0.31924641  0.62731332  0.30358877    -0.08900
C511        C  0.28115701  0.59850475  0.30570270    -0.25500
S512        S  0.19573509  0.96631266  0.25507245    -0.02700
C513        C  0.22347763  0.95400630  0.23490755    -0.16100
C514        C  0.26187441  0.97954565  0.23696392    -0.14100
H515        H  0.32968674  0.54477726  0.24967094     0.21200
H516        H  0.21242180  0.53203450  0.29389653     0.17300
H517        H  0.25939370  0.60143683  0.31646825     0.19800
H518        H  0.28350713  0.97696974  0.22542676     0.13200
C519        C  0.99737908  0.73247820  0.26760056     0.17000
C520        C  0.47012704  0.70727700  0.28764120    -0.32000
C521        C  0.43751064  0.70986726  0.29118721     0.21400
C522        C  0.43229765  0.73611355  0.27553086     0.03600
C523        C  0.45992140  0.76209922  0.25619701    -0.21700
C524        C  0.49245515  0.75956280  0.25261784     0.12800
S525        S  0.03760588  0.73221919  0.25837862    -0.05400
C526        C  0.04799616  0.76939247  0.23447039    -0.08900
C527        C  0.02162075  0.78114578  0.23387689    -0.25500
S528        S  0.38922414  0.73149303  0.28023952    -0.02700
C529        C  0.37697735  0.69336141  0.30431276    -0.16100
C530        C  0.40674265  0.68613270  0.30801579    -0.14100
H531        H  0.97362510  0.68588866  0.29924688     0.21200
H532        H  0.45568204  0.78248009  0.24376469     0.17300
H533        H  0.02322161  0.80363538  0.21987801     0.19800
H534        H  0.40541912  0.66264757  0.32019989     0.13200
C535        C  0.17483063  0.59960437  0.40113805     0.17000
C536        C  0.20253955  0.62520429  0.38155721    -0.32000
C537        C  0.23501127  0.62239742  0.37798791     0.21400
C538        C  0.23966128  0.59546421  0.39318522     0.03600
C539        C  0.21157701  0.56912408  0.41216204    -0.21700
C540        C  0.17913403  0.57191274  0.41579078     0.12800
S541        S  0.13473453  0.60014566  0.41016000    -0.05400
C542        C  0.12340961  0.56232234  0.43364204    -0.08900
C543        C  0.14946873  0.55009385  0.43422069    -0.25500
S544        S  0.28266820  0.59977286  0.38836538    -0.02700
C545        C  0.29539061  0.63843547  0.36478576    -0.16100
C546        C  0.26611197  0.64642202  0.36153377    -0.14100
H547        H  0.19944852  0.64708398  0.37026839     0.21200
H548        H  0.21538992  0.54822592  0.42428180     0.17300
H549        H  0.14730582  0.52714192  0.44797527     0.19800
H550        H  0.26796173  0.67039600  0.34970041     0.13200
C551        C  0.43513073  0.82495917  0.40502861     0.17000
C552        C  0.43092823  0.79995638  0.38256954    -0.32000
C553        C  0.39647285  0.76525584  0.38103222     0.21400
C554        C  0.36785885  0.75582683  0.40101609     0.03600
C555        C  0.37167590  0.78093772  0.42310783    -0.21700
C556        C  0.40582886  0.81563661  0.42452026     0.12800
S557        S  0.47471878  0.86830900  0.41111388    -0.05400
C558        C  0.45085341  0.87396537  0.43964600    -0.08900
C559        C  0.41459057  0.84375701  0.44426537    -0.25500
S560        S  0.32995554  0.71134511  0.39713036    -0.02700
C561        C  0.35202137  0.70436578  0.36743371    -0.16100
C562        C  0.38758476  0.73649347  0.36169029    -0.14100
H563        H  0.45360745  0.80701465  0.36718837     0.21200
H564        H  0.34920188  0.77353081  0.43876324     0.17300
H565        H  0.39553820  0.84264494  0.46108505     0.19800
H566        H  0.40772243  0.73830568  0.34577855     0.13200
C567        C  0.40560626  0.63423354  0.38679532     0.17000
C568        C  0.43277170  0.63219642  0.40372217    -0.32000
C569        C  0.42908719  0.59622376  0.40780065     0.21400
C570        C  0.39995221  0.56361149  0.39530578     0.03600
C571        C  0.37386747  0.56614237  0.37690894    -0.21700
C572        C  0.37741650  0.60238051  0.37305806     0.12800
S573        S  0.40170040  0.67375634  0.38379069    -0.05400
C574        C  0.36129586  0.64810514  0.36294673    -0.08900
C575        C  0.35298701  0.61041925  0.35840867    -0.25500
S576        S  0.39808751  0.52204497  0.40625313    -0.02700
C577        C  0.43727549  0.54936400  0.42741563    -0.16100
C578        C  0.45087896  0.58834703  0.42568314    -0.14100
H579        H  0.45461501  0.65723421  0.41462343     0.21200
H580        H  0.35078573  0.54080706  0.36726652     0.17300
H581        H  0.32849327  0.58885477  0.34703959     0.19800
H582        H  0.47456781  0.60977859  0.43797234     0.13200
C583        C  0.31423743  0.88550733  0.57870381     0.17000
C584        C  0.27686880  0.85655261  0.58415804    -0.32000
C585        C  0.25737600  0.86189444  0.60697792     0.21400
C586        C  0.27416769  0.89463684  0.62350003     0.03600
C587        C  0.31194928  0.92338628  0.61852054    -0.21700
C588        C  0.33166353  0.91797060  0.59576142     0.12800
S589        S  0.34144609  0.88530450  0.55075714    -0.05400
C590        C  0.37720302  0.92914260  0.56230343    -0.08900
C591        C  0.36820494  0.94298019  0.58671864    -0.25500
S592        S  0.24450366  0.89650224  0.64856082    -0.02700
C593        C  0.20862553  0.85161102  0.63770222    -0.16100
C594        C  0.22050856  0.83738384  0.61488057    -0.14100
H595        H  0.26330780  0.83124201  0.57079510     0.21200
H596        H  0.32512971  0.94911542  0.63143033     0.17300
H597        H  0.38679021  0.97039643  0.59655977     0.19800
H598        H  0.20301888  0.81085735  0.60360917     0.13200
C599        C  0.07726129  0.68935737  0.57238697     0.17000
C600        C  0.08750265  0.72754690  0.57763534    -0.32000
C601        C  0.10995026  0.74526572  0.60207677     0.21400
C602        C  0.12233205  0.72611456  0.61980412     0.03600
C603        C  0.11166988  0.68787197  0.61492999    -0.21700
C604        C  0.08849783  0.66982863  0.59103912     0.12800
S605        S  0.05144454  0.66309473  0.54343309    -0.05400
C606        C  0.05493658  0.62515150  0.55717281    -0.08900
C607        C  0.07528571  0.63277416  0.58268540    -0.25500
S608        S  0.15158276  0.75321147  0.64667030    -0.03600
C609        C  0.14539571  0.79100849  0.63600367    -0.16100
C610        C  0.12291946  0.78214099  0.61102996    -0.14100
H611        H  0.07852971  0.74278866  0.56325479     0.21200
H612        H  0.12125038  0.67291959  0.62904855     0.17300
H613        H  0.08115791  0.61270884  0.59394223     0.19800
H614        H  0.11704789  0.80183753  0.59925671     0.13200
C615        C  0.11642765  0.93227025  0.58353833     0.17000
C616        C  0.14593394  0.92507903  0.58928749    -0.32000
C617        C  0.13948442  0.89678897  0.61017352     0.21400
C618        C  0.10518308  0.87662828  0.62446578     0.03600
C619        C  0.07588226  0.88428396  0.61925076    -0.21700
C620        C  0.08233530  0.91268411  0.59849244     0.12800
S621        S  0.11762083  0.96294944  0.55724402    -0.05400
C622        C  0.07196317  0.94983736  0.56673526    -0.08900
C623        C  0.05680051  0.92310837  0.58926347    -0.25500
S624        S  0.10195375  0.84159723  0.64699109    -0.02700
C625        C  0.14828290  0.85449183  0.63849813    -0.16100
C626        C  0.16412655  0.88455137  0.61796874    -0.14100
H627        H  0.17243788  0.94022376  0.57746099     0.21200
H628        H  0.04893313  0.86814886  0.63037339     0.17300
H629        H  0.02809482  0.91051842  0.59731769     0.19800
H630        H  0.19176148  0.89624917  0.60810491     0.13200
C631        C  0.45687786  0.88999414  0.95819470     0.17000
C632        C  0.45044780  0.85331236  0.95167130    -0.32000
C633        C  0.42248680  0.83182794  0.93112513     0.21400
C634        C  0.40116843  0.84589996  0.91847633     0.03600
C635        C  0.40795546  0.88269944  0.92486610    -0.21700
C636        C  0.43671551  0.90460672  0.94471688     0.12800
S637        S  0.49055164  0.92117810  0.98116548    -0.05400
C638        C  0.47856408  0.95575276  0.97257779    -0.08900
C639        C  0.44919312  0.94195909  0.95223406    -0.25500
S640        S  0.36858434  0.81573341  0.89413143    -0.02700
C641        C  0.38468945  0.78429013  0.90004628    -0.16100
C642        C  0.41343109  0.79654001  0.92041244    -0.14100
H643        H  0.46712729  0.84241322  0.96164444     0.21200
H644        H  0.39203862  0.89408221  0.91431376     0.17300
H645        H  0.43806006  0.95831464  0.94207068     0.19800
H646        H  0.42722212  0.78075781  0.92673359     0.13200
C647        C  0.10686521  0.55773498  0.95449730     0.17000
C648        C  0.14351499  0.58699875  0.94761969    -0.32000
C649        C  0.16189486  0.58098651  0.92441987     0.21400
C650        C  0.14489664  0.54696795  0.90914486     0.03600
C651        C  0.10781088  0.51797918  0.91573153    -0.21700
C652        C  0.08913081  0.52442917  0.93865983     0.12800
S653        S  0.07983610  0.56015919  0.98126198    -0.05400
C654        C  0.04253005  0.51566799  0.97117116    -0.08900
C655        C  0.05249884  0.50065892  0.94762103    -0.25500
S656        S  0.17272288  0.54483584  0.88245197    -0.02700
C657        C  0.20691522  0.59072594  0.89145488    -0.16100
C658        C  0.19726595  0.60644769  0.91407993    -0.14100
H659        H  0.15697342  0.61346391  0.95965872     0.21200
H660        H  0.09407010  0.49173600  0.90343104     0.17300
H661        H  0.03366916  0.97445297  0.93639872     0.19800
H662        H  0.21534336  0.63481577  0.92268095     0.13200
C663        C  0.40442977  0.56263842  0.93440050     0.17000
C664        C  0.40559116  0.53540555  0.95296861    -0.32000
C665        C  0.44087772  0.53853901  0.95771239     0.21400
C666        C  0.47314597  0.56729217  0.94444376     0.03600
C667        C  0.47235085  0.59542292  0.92696023    -0.21700
C668        C  0.43725585  0.59236689  0.92219007     0.12800
S669        S  0.36423322  0.56170520  0.92334645    -0.05400
C670        C  0.39209547  0.60221403  0.90253136    -0.08900
C671        C  0.43045953  0.61555903  0.90430123    -0.25500
S672        S  0.51184282  0.56326584  0.94945398    -0.02700
C673        C  0.48525709  0.52233672  0.97082146    -0.16100
C674        C  0.44768805  0.51353925  0.97344042    -0.14100
H675        H  0.37999604  0.51204728  0.96241022     0.21200
H676        H  0.49776898  0.61780444  0.91654683     0.17300
H677        H  0.45206445  0.63995033  0.89219575     0.19800
H678        H  0.42546730  0.48853933  0.98429650     0.13200
C679        C  0.19561774  0.76363808  0.72924361     0.17000
C680        C  0.19895343  0.74085545  0.75073319    -0.32000
C681        C  0.23226406  0.73944059  0.75128632     0.21400
C682        C  0.26067303  0.75885007  0.73077288     0.03600
C683        C  0.25731681  0.78193810  0.70922151    -0.21700
C684        C  0.22418671  0.78421410  0.70923214     0.12800
S685        S  0.15857219  0.77088951  0.72670510    -0.05400
C686        C  0.18121032  0.80311250  0.69808205    -0.08900
C687        C  0.21648306  0.80713610  0.69159980    -0.25500
S688        S  0.29876875  0.75278468  0.73541770    -0.02700
C689        C  0.27643665  0.72503423  0.76584769    -0.16100
C690        C  0.24127597  0.72041709  0.77155787    -0.14100
H691        H  0.17689564  0.72566899  0.76684857     0.21200
H692        H  0.27980750  0.79803139  0.69360972     0.17300
H693        H  0.23657499  0.82692720  0.67591812     0.19800
H694        H  0.22320453  0.70392759  0.78964323     0.13200
C695        C  0.06007186  0.76943691  0.71231607     0.17000
C696        C  0.02263661  0.74086511  0.71797233    -0.32000
C697        C  0.00409917  0.74633036  0.74143408     0.21400
C698        C  0.52205493  0.77875095  0.75850734     0.03600
C699        C  0.05913850  0.80773689  0.75229393    -0.21700
C700        C  0.07763616  0.80221398  0.72882221     0.12800
S701        S  0.08849834  0.76666628  0.68674495    -0.05400
C702        C  0.12510218  0.81120601  0.69748070    -0.08900
C703        C  0.11436128  0.82614267  0.72051277    -0.25500
S704        S  0.49583721  0.77864749  0.78737339    -0.02700
C705        C  0.46015320  0.73470154  0.77606211    -0.16100
C706        C  0.46824006  0.72118379  0.75113510    -0.14100
H707        H  0.00893056  0.71504906  0.70517397     0.21200
H708        H  0.07331194  0.83300620  0.76565374     0.17300
H709        H  0.13268122  0.85226484  0.73196835     0.19800
H710        H  0.44932986  0.69390742  0.74121840     0.13200
C711        C  0.23805232  0.49370361  0.73317301     0.17000
C712        C  0.21325363  0.96726757  0.71281867    -0.32000
C713        C  0.20956968  0.93076842  0.71255895     0.21400
C714        C  0.22987985  0.92140565  0.73153720     0.03600
C715        C  0.25383668  0.94725503  0.75228880    -0.21700
C716        C  0.25728790  0.98341252  0.75274416     0.12800
S717        S  0.24720260  0.53965253  0.73708891    -0.05400
C718        C  0.27652940  0.54440901  0.76563185    -0.08900
C719        C  0.27897898  0.51214845  0.77153046    -0.25500
S720        S  0.22228554  0.87651607  0.72778244    -0.02700
C721        C  0.19046312  0.86875281  0.69997816    -0.16100
C722        C  0.18649320  0.90074457  0.69486967    -0.14100
H723        H  0.19747094  0.47480007  0.69788751     0.21200
H724        H  0.26913073  0.93948581  0.76746093     0.17300
H725        H  0.29567623  0.50981391  0.78882675     0.19800
H726        H  0.16704894  0.90210987  0.67981722     0.13200
O727        O  0.89094632  0.23442086  0.87816843    -0.77400
C728        C  0.87585980  0.11958929  0.88331642     0.83600
O729        O  0.89388214  0.19348990  0.77751440    -0.78500
O730        O  0.79578040  0.07331056  0.81143419    -0.80000
O731        O  0.75804332  0.14762585  0.87157625    -0.79800
O732        O  0.83717673  0.23469069  0.87217768    -0.78400
Zn733      Zn  0.88523302  0.19135253  0.85175416     1.55700
O734        O  0.75831139  0.09291819  0.86690882    -0.79800
Cd735      Cd  0.80456959  0.18676742  0.84731679     1.59700
Cd736      Cd  0.83788433  0.16623342  0.79059083     1.59600
O737        O  0.78526068  0.20402257  0.81184058    -0.79800
O738        O  0.83511686  0.16391959  0.83425851    -1.90300
Cd739      Cd  0.80902423  0.10898197  0.84657742     1.59900
O740        O  0.81476632  0.19749463  0.77346786    -0.79800
O741        O  0.84189760  0.09864028  0.87495949    -0.78400
C742        C  0.92416194  0.21350562  0.79183589     0.84100
C743        C  0.87017155  0.24898379  0.88289003     0.83800
O744        O  0.89585759  0.15469680  0.87542282    -0.77400
C745        C  0.74309848  0.11164260  0.87587648     0.84600
O746        O  0.92429508  0.21594948  0.81950873    -0.77500
C747        C  0.79318739  0.20807389  0.78471456     0.84700
C748        C  0.79459989  0.07840291  0.78414614     0.85000
O749        O  0.80788112  0.11166239  0.77273115    -0.79900
C750        C  0.66617456  0.32895682  0.68560080    -0.01400
C751        C  0.50159069  0.99794780  0.98385244    -0.01400
O752        O  0.00063708  0.42740783  0.46337380    -0.77400
C753        C  0.58917003  0.04498280  0.45186061     0.83600
O754        O  0.53010846  0.47466829  0.56162875    -0.78500
O755        O  0.54007992  0.09022549  0.51390713    -0.80000
O756        O  0.93568841  0.99862807  0.45536817    -0.79800
O757        O  0.94322939  0.42067118  0.46296369    -0.78400
Zn758      Zn  0.53201187  0.47525844  0.48695671     1.55700
O759        O  0.98819854  0.05583184  0.45527091    -0.79800
Cd760      Cd  0.94955831  0.46752948  0.48430495     1.59700
Cd761      Cd  0.00055584  0.49980155  0.54326117     1.59600
O762        O  0.91101049  0.44641964  0.51809651    -0.79800
O763        O  0.50218942  0.49783758  0.49936898    -1.90300
Cd764      Cd  0.52534436  0.05026841  0.48183536     1.59900
O765        O  0.94426795  0.47035160  0.55873702    -0.79800
O766        O  0.57271277  0.06389174  0.45690867    -0.78400
C767        C  0.55024502  0.46283196  0.54934344     0.84100
C768        C  0.96594454  0.40926922  0.45619265     0.83800
O769        O  0.57675532  0.01141744  0.46223736    -0.77400
C770        C  0.95457440  0.03346523  0.44683535     0.84600
O771        O  0.55307905  0.46237309  0.52178708    -0.77500
C772        C  0.91285884  0.45009350  0.54564115     0.84700
C773        C  0.53966800  0.08880111  0.54159675     0.85000
O774        O  0.52681711  0.05729561  0.55590857    -0.79900
C775        C  0.83628162  0.16476946  0.35252181    -0.01400
C776        C  0.66726206  0.33164655  0.64977445    -0.01400
O777        O  0.67806471  0.26877910  0.20380199    -0.77400
C778        C  0.58184684  0.28721627  0.21584032     0.83600
O779        O  0.63500285  0.27784976  0.10858327    -0.78500
O780        O  0.62179020  0.37656928  0.14735455    -0.80000
O781        O  0.72922798  0.40726565  0.20818769    -0.79800
O782        O  0.73145186  0.32467440  0.20902767    -0.78400
Zn783      Zn  0.64166080  0.27924207  0.18231455     1.55700
O784        O  0.67341490  0.40420737  0.20862269    -0.79800
Cd785      Cd  0.72038364  0.36078426  0.18336257     1.59700
Cd786      Cd  0.66815815  0.33258624  0.12468806     1.59600
O787        O  0.75835857  0.38081751  0.14854119    -0.79800
O788        O  0.66744132  0.33200772  0.16832274    -1.90300
Cd789      Cd  0.64016597  0.35801823  0.18213956     1.59900
O790        O  0.72288795  0.35511677  0.10907139    -0.79800
O791        O  0.59349761  0.32092720  0.20609689    -0.78400
C792        C  0.61947421  0.24526182  0.12130094     0.84100
C793        C  0.71155075  0.28857585  0.21343771     0.83800
O794        O  0.59831540  0.26859440  0.20958959    -0.77400
C795        C  0.70785094  0.41991693  0.21633727     0.84600
O796        O  0.62070931  0.24185647  0.14884580    -0.77500
C797        C  0.75497707  0.37468190  0.12118587     0.84700
C798        C  0.62725813  0.37824650  0.11995377     0.85000
O799        O  0.64621703  0.36498134  0.10801916    -0.79900
C800        C  0.50152225  0.99899273  0.01959741    -0.01400
C801        C  0.83632948  0.16801677  0.31705991    -0.01400
C802        C  0.90988164  0.47013718  0.06607023     0.17000
C803        C  0.88514413  0.46670897  0.08839840    -0.32000
C804        C  0.84929361  0.43384308  0.08901736     0.21400
C805        C  0.83815920  0.40597891  0.06791803     0.03600
C806        C  0.86347239  0.40903287  0.04595570    -0.21700
C807        C  0.89983406  0.44168884  0.04578436     0.12800
S808        S  0.95452880  0.50735603  0.06226267    -0.05400
C809        C  0.96143655  0.48482762  0.03274459    -0.08900
C810        C  0.92929128  0.44920559  0.02731449    -0.25500
S811        S  0.79259824  0.36913671  0.07194947    -0.02700
C812        C  0.78929665  0.39095882  0.10297762    -0.16100
C813        C  0.82167245  0.42511801  0.10940636    -0.14100
H814        H  0.89362031  0.48860647  0.10474828     0.21200
H815        H  0.85528945  0.38687680  0.02987334     0.17300
H816        H  0.92744008  0.42876791  0.01160006     0.19800
H817        H  0.82465077  0.44288997  0.12783778     0.13200
C818        C  0.56623159  0.16148302  0.06879347     0.17000
C819        C  0.54326243  0.13555091  0.04737110    -0.32000
C820        C  0.54412025  0.10139369  0.04458146     0.21400
C821        C  0.56729243  0.09402019  0.06195717     0.03600
C822        C  0.59008516  0.11970636  0.08327878    -0.21700
C823        C  0.58855709  0.15319607  0.08657947     0.12800
S824        S  0.56963558  0.20456983  0.07591798    -0.05400
C825        C  0.60057809  0.21060704  0.10355400    -0.08900
C826        C  0.60780522  0.18091092  0.10682348    -0.25500
S827        S  0.56275563  0.05050497  0.05696119    -0.02700
C828        C  0.52751544  0.04011111  0.03151014    -0.16100
C829        C  0.52168821  0.07105319  0.02687781    -0.14100
H830        H  0.52503039  0.14137881  0.03390742     0.21200
H831        H  0.60751212  0.11333465  0.09726452     0.17300
H832        H  0.62691949  0.18014216  0.12272124     0.19800
H833        H  0.49977360  0.07034735  0.01342132     0.13200
C834        C  0.53177502  0.43817173  0.06785867     0.17000
C835        C  0.53679497  0.41833615  0.09084541    -0.32000
C836        C  0.56820440  0.41354040  0.08954653     0.21400
C837        C  0.59307831  0.42699413  0.06610907     0.03600
C838        C  0.58848104  0.44773157  0.04344286    -0.21700
C839        C  0.55746460  0.45336463  0.04517944     0.12800
S840        S  0.49594331  0.44748832  0.06572654    -0.05400
C841        C  0.51565124  0.47343324  0.03371653    -0.08900
C842        C  0.54926460  0.47442205  0.02623665    -0.25500
S843        S  0.62860360  0.41668419  0.06830857    -0.02700
C844        C  0.61038062  0.39547856  0.10167635    -0.16100
C845        C  0.57826224  0.39591121  0.11016969    -0.14100
H846        H  0.51727776  0.40743257  0.10907371     0.21200
H847        H  0.60832176  0.45923987  0.02543306     0.17300
H848        H  0.56788384  0.49023385  0.00845407     0.19800
H849        H  0.56288568  0.38364061  0.13029620     0.13200
C850        C  0.74443088  0.22335451  0.24657704     0.17000
C851        C  0.75134825  0.19350694  0.25263314    -0.32000
C852        C  0.77607927  0.19850717  0.27536172     0.21400
C853        C  0.79264094  0.23140749  0.29171806     0.03600
C854        C  0.78621810  0.26172602  0.28546375    -0.21700
C855        C  0.76201248  0.25705186  0.26224086     0.12800
S856        S  0.71521257  0.22231983  0.21987034    -0.05400
C857        C  0.72748878  0.26823925  0.22915860    -0.08900
C858        C  0.75278820  0.28335510  0.25202223    -0.25500
S859        S  0.82231756  0.23180853  0.31774825    -0.02700
C860        C  0.81327988  0.18691769  0.30636096    -0.16100
C861        C  0.78790350  0.17352872  0.28315890    -0.14100
H862        H  0.73830544  0.16757318  0.23988937     0.21200
H863        H  0.79990492  0.28791531  0.29779980     0.17300
H864        H  0.76335375  0.31163799  0.26084585     0.19800
H865        H  0.77985167  0.14787958  0.27090882     0.13200
C866        C  0.80565843  0.07057169  0.27680999     0.17000
C867        C  0.80429097  0.04173635  0.25947799    -0.32000
C868        C  0.76895371  0.50943836  0.25466275     0.21400
C869        C  0.73622781  0.50605545  0.26634873     0.03600
C870        C  0.73785247  0.03452429  0.28464962    -0.21700
C871        C  0.77355391  0.06682871  0.28973092     0.12800
S872        S  0.84513136  0.11337501  0.28220752    -0.05400
C873        C  0.81927748  0.12735629  0.30351858    -0.08900
C874        C  0.78118774  0.09855000  0.30564488    -0.25500
S875        S  0.69578340  0.46625786  0.25513221    -0.02700
C876        C  0.72355091  0.45394437  0.23500784    -0.16100
C877        C  0.76194838  0.47944971  0.23712844    -0.14100
H878        H  0.82962367  0.04489767  0.24943480     0.21200
H879        H  0.71243161  0.03209047  0.29386109     0.17300
H880        H  0.75943996  0.10147025  0.31644883     0.19800
H881        H  0.78359659  0.47686925  0.22562013     0.13200
C882        C  0.49743372  0.23252086  0.26759976     0.17000
C883        C  0.97014901  0.20727306  0.28759769    -0.32000
C884        C  0.93755562  0.20989613  0.29116520     0.21400
C885        C  0.93239461  0.23622048  0.27557260     0.03600
C886        C  0.96005770  0.26225978  0.25628822    -0.21700
C887        C  0.99256779  0.25968621  0.25268420     0.12800
S888        S  0.53762153  0.23221061  0.25834012    -0.05400
C889        C  0.54807273  0.26946581  0.23450321    -0.08900
C890        C  0.52175111  0.28129106  0.23396483    -0.25500
S891        S  0.88932963  0.23162110  0.28028450    -0.02700
C892        C  0.87702395  0.19339705  0.30427567    -0.16100
C893        C  0.90676078  0.18612208  0.30795043    -0.14100
H894        H  0.47360085  0.18582074  0.29914829     0.21200
H895        H  0.95586062  0.28270188  0.24390356     0.17300
H896        H  0.52339339  0.30383631  0.22001045     0.19800
H897        H  0.90539829  0.16258289  0.32008214     0.13200
C898        C  0.67488411  0.09965262  0.40111468     0.17000
C899        C  0.70260923  0.12527844  0.38155373    -0.32000
C900        C  0.73506047  0.12244081  0.37795269     0.21400
C901        C  0.73967654  0.09545481  0.39310235     0.03600
C902        C  0.71157251  0.06908609  0.41205476    -0.21700
C903        C  0.67914925  0.07190478  0.41571522     0.12800
S904        S  0.63481391  0.10022554  0.41017568    -0.05400
C905        C  0.62344470  0.06233910  0.43360352    -0.08900
C906        C  0.64947263  0.05006741  0.43413434    -0.25500
S907        S  0.78267031  0.09973514  0.38825988    -0.02700
C908        C  0.79543151  0.13845518  0.36473300    -0.16100
C909        C  0.76617286  0.14647844  0.36151203    -0.14100
H910        H  0.69954682  0.14720058  0.37030522     0.21200
H911        H  0.71535794  0.04814392  0.42413579     0.17300
H912        H  0.64728246  0.02707285  0.44785070     0.19800
H913        H  0.76804657  0.17048373  0.34971072     0.13200
C914        C  0.93522778  0.32495020  0.40502588     0.17000
C915        C  0.93101574  0.29995777  0.38255393    -0.32000
C916        C  0.89655928  0.26525462  0.38101681     0.21400
C917        C  0.86795888  0.25581122  0.40101606     0.03600
C918        C  0.87178829  0.28090704  0.42312347    -0.21700
C919        C  0.90593678  0.31561026  0.42453245     0.12800
S920        S  0.97480457  0.36831593  0.41110241    -0.05400
C921        C  0.95094354  0.37395365  0.43964818    -0.08900
C922        C  0.91469528  0.34372619  0.44428072    -0.25500
S923        S  0.83004951  0.21133498  0.39712254    -0.02700
C924        C  0.85208794  0.20437464  0.36739830    -0.16100
C925        C  0.88765312  0.23650567  0.36165595    -0.14100
H926        H  0.95368358  0.30703000  0.36715858     0.21200
H927        H  0.84932231  0.27348982  0.43878861     0.17300
H928        H  0.89564568  0.34260234  0.46110756     0.19800
H929        H  0.90778280  0.23832907  0.34573266     0.13200
C930        C  0.90568284  0.13422225  0.38665607     0.17000
C931        C  0.93287287  0.13218767  0.40355180    -0.32000
C932        C  0.92917133  0.09621008  0.40764553     0.21400
C933        C  0.90000007  0.06359010  0.39518855     0.03600
C934        C  0.87389781  0.06611931  0.37680820    -0.21700
C935        C  0.87746005  0.10236370  0.37294755     0.12800
S936        S  0.90178130  0.17374896  0.38367198    -0.05400
C937        C  0.86133548  0.14809708  0.36287169    -0.08900
C938        C  0.85301276  0.11040672  0.35832616    -0.25500
S939        S  0.89810477  0.02202125  0.40617929    -0.02700
C940        C  0.93732694  0.04935047  0.42730938    -0.16100
C941        C  0.95096661  0.08833756  0.42552855    -0.14100
H942        H  0.95474076  0.15723131  0.41443088     0.21200
H943        H  0.85078676  0.04077856  0.36719654     0.17300
H944        H  0.82850496  0.08884628  0.34696738     0.19800
H945        H  0.97467576  0.10977795  0.43779564     0.13200
C946        C  0.81418665  0.38543127  0.57866720     0.17000
C947        C  0.77681933  0.35647886  0.58413175    -0.32000
C948        C  0.75732260  0.36185305  0.60693244     0.21400
C949        C  0.77411286  0.39461735  0.62343003     0.03600
C950        C  0.81188872  0.42336472  0.61843862    -0.21700
C951        C  0.83160279  0.41792159  0.59569682     0.12800
S952        S  0.84140485  0.38519929  0.55073827    -0.05400
C953        C  0.87714436  0.42906500  0.56225590    -0.08900
C954        C  0.86813690  0.44292976  0.58664754    -0.25500
S955        S  0.74445776  0.39651270  0.64848044    -0.02700
C956        C  0.70857575  0.35161332  0.63764396    -0.16100
C957        C  0.72045440  0.33735575  0.61483967    -0.14100
H958        H  0.76326226  0.33114789  0.57079034     0.21200
H959        H  0.82506543  0.44911322  0.63132657     0.17300
H960        H  0.88671169  0.47036432  0.59646740     0.19800
H961        H  0.70296371  0.31081469  0.60358630     0.13200
C962        C  0.57715414  0.18935603  0.57236812     0.17000
C963        C  0.58738802  0.22754357  0.57762018    -0.32000
C964        C  0.60985859  0.24527104  0.60205092     0.21400
C965        C  0.62225569  0.22612579  0.61976973     0.03600
C966        C  0.61160199  0.18788803  0.61489159    -0.21700
C967        C  0.58841975  0.16984052  0.59100773     0.12800
S968        S  0.55133154  0.16308481  0.54341743    -0.05400
C969        C  0.55487435  0.12516231  0.55713981    -0.08900
C970        C  0.57523408  0.13279551  0.58264645    -0.25500
S971        S  0.65152212  0.25322399  0.64662769    -0.03600
C972        C  0.64533765  0.29102151  0.63596332    -0.16100
C973        C  0.62284401  0.28215108  0.61099839    -0.14100
H974        H  0.57840017  0.24277963  0.56324734     0.21200
H975        H  0.62120264  0.17294364  0.62899930     0.17300
H976        H  0.58113807  0.11274566  0.59389179     0.19800
H977        H  0.61697276  0.30184857  0.59922639     0.13200
C978        C  0.61638609  0.43235422  0.58361096     0.17000
C979        C  0.64590666  0.42518734  0.58935984    -0.32000
C980        C  0.63944337  0.39684535  0.61019939     0.21400
C981        C  0.60511920  0.37662056  0.62445189     0.03600
C982        C  0.57580096  0.38424583  0.61923516    -0.21700
C983        C  0.58226443  0.41269079  0.59851944     0.12800
S984        S  0.61759561  0.46308488  0.55735910    -0.05400
C985        C  0.57190127  0.44987769  0.56680263    -0.08900
C986        C  0.55671432  0.42308783  0.58928659    -0.25500
S987        S  0.60188395  0.34155219  0.64692979    -0.02700
C988        C  0.64823633  0.35450557  0.63846612    -0.16100
C989        C  0.66409434  0.38461547  0.61798087    -0.14100
H990        H  0.67243085  0.44038741  0.57756495     0.21200
H991        H  0.54883212  0.36805421  0.63032212     0.17300
H992        H  0.52798430  0.41043465  0.59730021     0.19800
H993        H  0.69174547  0.39635788  0.60813787     0.13200
C994        C  0.95692681  0.39000255  0.95820467     0.17000
C995        C  0.95048865  0.35331542  0.95168784    -0.32000
C996        C  0.92259863  0.33187543  0.93108147     0.21400
C997        C  0.90136329  0.34600050  0.91836391     0.03600
C998        C  0.90816610  0.38280477  0.92474168    -0.21700
C999        C  0.93684614  0.40466052  0.94465918     0.12800
S1000       S  0.99051475  0.42114133  0.98125046    -0.05400
C1001       C  0.97859521  0.45575146  0.97260291    -0.08900
C1002       C  0.94931487  0.44200357  0.95218460    -0.25500
S1003       S  0.86883473  0.31587985  0.89397314    -0.02700
C1004       C  0.88484172  0.28437390  0.89996827    -0.16100
C1005       C  0.91352264  0.29657527  0.92038373    -0.14100
H1006       H  0.96710134  0.34237553  0.96171775     0.21200
H1007       H  0.89231298  0.39422522  0.91413899     0.17300
H1008       H  0.93825502  0.45839167  0.94196412     0.19800
H1009       H  0.92724202  0.28074260  0.92676029     0.13200
C1010       C  0.60682186  0.05778132  0.95443232     0.17000
C1011       C  0.64346972  0.08705416  0.94756195    -0.32000
C1012       C  0.66184844  0.08106946  0.92434787     0.21400
C1013       C  0.64484507  0.04707259  0.90904543     0.03600
C1014       C  0.60775737  0.01807658  0.91562291    -0.21700
C1015       C  0.58908293  0.02449342  0.93857428     0.12800
S1016       S  0.57980590  0.06017126  0.98122096    -0.05400
C1017       C  0.54250193  0.01567864  0.97112809    -0.08900
C1018       C  0.55245699  0.00070324  0.94754732    -0.25500
S1019       S  0.67267888  0.04496475  0.88234729    -0.02700
C1020       C  0.70688660  0.09083105  0.89139303    -0.16100
C1021       C  0.69723138  0.10653225  0.91402895    -0.14100
H1022       H  0.65693209  0.11350093  0.95962358     0.21200
H1023       H  0.59401631  0.99184788  0.90330554     0.17300
H1024       H  0.53371833  0.47439628  0.93648388     0.19800
H1025       H  0.71531716  0.13488151  0.92265845     0.13200
C1026       C  0.90443763  0.06274961  0.93445793     0.17000
C1027       C  0.90560277  0.03553476  0.95304770    -0.32000
C1028       C  0.94087655  0.03861340  0.95774095     0.21400
C1029       C  0.97312899  0.06730820  0.94441389     0.03600
C1030       C  0.97233406  0.09541976  0.92690580    -0.21700
C1031       C  0.93725187  0.09240987  0.92217747     0.12800
S1032       S  0.86424461  0.06186034  0.92344731    -0.05400
C1033       C  0.89209496  0.10228701  0.90254646    -0.08900
C1034       C  0.93045279  0.11557947  0.90426433    -0.25500
S1035       S  0.01180193  0.06323162  0.94938399    -0.02700
C1036       C  0.98523222  0.02235042  0.97080467    -0.16100
C1037       C  0.94768261  0.01360728  0.97346967    -0.14100
H1038       H  0.88001564  0.01222470  0.96253968     0.21200
H1039       H  0.99773939  0.11774797  0.91644082     0.17300
H1040       H  0.95204828  0.13991332  0.89210362     0.19800
H1041       H  0.92546655  0.98864509  0.98436395     0.13200
C1042       C  0.69559121  0.26375088  0.72930593     0.17000
C1043       C  0.69895794  0.24104284  0.75084529    -0.32000
C1044       C  0.73222797  0.23954892  0.75136035     0.21400
C1045       C  0.76056522  0.25881597  0.73076959     0.03600
C1046       C  0.75718352  0.28183856  0.70917491    -0.21700
C1047       C  0.72409647  0.28419092  0.70921759     0.12800
S1048       S  0.65858565  0.27106595  0.72678160    -0.05400
C1049       C  0.68115480  0.30312882  0.69805599    -0.08900
C1050       C  0.71638230  0.30706555  0.69153787    -0.25500
S1051       S  0.79860971  0.25265766  0.73536464    -0.02700
C1052       C  0.77635988  0.22505885  0.76587387    -0.16100
C1053       C  0.74126063  0.22056187  0.77165122    -0.14100
H1054       H  0.67695244  0.22596420  0.76701729     0.21200
H1055       H  0.77962119  0.29781929  0.69350019     0.17300
H1056       H  0.73643494  0.32676010  0.67579218     0.19800
H1057       H  0.72324283  0.20417333  0.78979040     0.13200
C1058       C  0.56004831  0.26951553  0.71226281     0.17000
C1059       C  0.52261155  0.24095156  0.71791453    -0.32000
C1060       C  0.50406036  0.24644185  0.74135150     0.21400
C1061       C  0.02200322  0.27888171  0.75840588     0.03600
C1062       C  0.55909007  0.30786505  0.75219313    -0.21700
C1063       C  0.57760335  0.30231455  0.72874562     0.12800
S1064       S  0.58848601  0.26670138  0.68672905    -0.05400
C1065       C  0.62508097  0.31125878  0.69743719    -0.08900
C1066       C  0.61433499  0.32622947  0.72044270    -0.25500
S1067       S  0.99577216  0.27878989  0.78725897    -0.02700
C1068       C  0.96010564  0.23482130  0.77596630    -0.16100
C1069       C  0.96820401  0.22129201  0.75105309    -0.14100
H1070       H  0.50891625  0.21511809  0.70513517     0.21200
H1071       H  0.57325586  0.33314870  0.76553905     0.17300
H1072       H  0.63265341  0.35236370  0.73188512     0.19800
H1073       H  0.94930986  0.19399769  0.74115410     0.13200
C1074       C  0.73807492  0.99368562  0.73320343     0.17000
C1075       C  0.71320082  0.46727916  0.71280545    -0.32000
C1076       C  0.70957680  0.43080736  0.71249494     0.21400
C1077       C  0.72998010  0.42148098  0.73140469     0.03600
C1078       C  0.75398154  0.44734093  0.75213067    -0.21700
C1079       C  0.75736409  0.48346543  0.75264299     0.12800
S1080       S  0.74731299  0.03967436  0.73704823    -0.05400
C1081       C  0.77654243  0.04440496  0.76565764    -0.08900
C1082       C  0.77889603  0.01210410  0.77162874    -0.25500
S1083       S  0.72241565  0.37660772  0.72762218    -0.02700
C1084       C  0.69046317  0.36879206  0.69991107    -0.16100
C1085       C  0.68645834  0.40076780  0.69483337    -0.14100
H1086       H  0.69760513  0.97481871  0.69784249     0.21200
H1087       H  0.76934644  0.43959677  0.76725189     0.17300
H1088       H  0.79552315  0.00974815  0.78897189     0.19800
H1089       H  0.66693942  0.40209614  0.67983489     0.13200
O1090       O  0.89085900  0.73437939  0.87822744    -0.77400
C1091       C  0.87586127  0.61953083  0.88331840     0.83600
O1092       O  0.89392844  0.69338222  0.77758369    -0.78500
O1093       O  0.79576080  0.57326783  0.81142278    -0.80000
O1094       O  0.75800319  0.64751455  0.87156860    -0.79800
O1095       O  0.83707403  0.73461004  0.87220821    -0.78400
Zn1096     Zn  0.88520502  0.69132119  0.85181515     1.55700
O1097       O  0.75834195  0.59283577  0.86695759    -0.79800
Cd1098     Cd  0.80452633  0.68668725  0.84732025     1.59700
Cd1099     Cd  0.83792482  0.66620468  0.79062404     1.59600
O1100       O  0.78524644  0.70393112  0.81181575    -0.79800
O1101       O  0.83511022  0.66386966  0.83428890    -1.90300
Cd1102     Cd  0.80902916  0.60892026  0.84657969     1.59900
O1103       O  0.81489157  0.69753206  0.77347965    -0.79800
O1104       O  0.84192353  0.59856362  0.87491697    -0.78400
C1105       C  0.92419388  0.71341414  0.79191624     0.84100
C1106       C  0.87005928  0.74891759  0.88294262     0.83800
O1107       O  0.89583049  0.65466497  0.87548509    -0.77400
C1108       C  0.74310329  0.61154299  0.87590829     0.84600
O1109       O  0.92429772  0.71590544  0.81958517    -0.77500
C1110       C  0.79325281  0.70805112  0.78470214     0.84700
C1111       C  0.79458455  0.57838579  0.78413865     0.85000
O1112       O  0.80788047  0.61165532  0.77274095    -0.79900
C1113       C  0.66620162  0.82892683  0.68564633    -0.01400
C1114       C  0.50161430  0.49794366  0.98388068    -0.01400
O1115       O  0.00058908  0.92741854  0.46333714    -0.77400
C1116       C  0.58913707  0.54496921  0.45189466     0.83600
O1117       O  0.53020960  0.97469160  0.56159035    -0.78500
O1118       O  0.54012730  0.59021062  0.51394447    -0.80000
O1119       O  0.93567986  0.49860797  0.45539007    -0.79800
O1120       O  0.94317897  0.92068100  0.46300516    -0.78400
Zn1121     Zn  0.53201884  0.97526063  0.48691452     1.55700
O1122       O  0.98815493  0.55584163  0.45535784    -0.79800
Cd1123     Cd  0.94956294  0.96757598  0.48431927     1.59700
Cd1124     Cd  0.00062266  0.99981926  0.54324859     1.59600
O1125       O  0.91104246  0.94652830  0.51813176    -0.79800
O1126       O  0.50221724  0.99785917  0.49935110    -1.90300
Cd1127     Cd  0.52532098  0.55025125  0.48186959     1.59900
O1128       O  0.94434295  0.97037439  0.55876555    -0.79800
O1129       O  0.57265438  0.56385999  0.45691158    -0.78400
C1130       C  0.55030971  0.96281970  0.54928996     0.84100
C1131       C  0.96588129  0.90927749  0.45619677     0.83800
O1132       O  0.57675096  0.51142353  0.46230017    -0.77400
C1133       C  0.95454105  0.53346720  0.44690631     0.84600
O1134       O  0.55310465  0.96234415  0.52173008    -0.77500
C1135       C  0.91291495  0.95016831  0.54567956     0.84700
C1136       C  0.53969219  0.58878384  0.54163358     0.85000
O1137       O  0.52677773  0.55727079  0.55594400    -0.79900
C1138       C  0.83623590  0.66475723  0.35257379    -0.01400
C1139       C  0.66730470  0.83163275  0.64982002    -0.01400
O1140       O  0.67805808  0.76877982  0.20380850    -0.77400
C1141       C  0.58178447  0.78716308  0.21581781     0.83600
O1142       O  0.63500945  0.77786815  0.10858150    -0.78500
O1143       O  0.62173799  0.87649970  0.14728804    -0.80000
O1144       O  0.72915212  0.90728044  0.20816171    -0.79800
O1145       O  0.73142595  0.82468393  0.20907083    -0.78400
Zn1146     Zn  0.64164786  0.77924082  0.18232139     1.55700
O1147       O  0.67332826  0.90420524  0.20857078    -0.79800
Cd1148     Cd  0.72035966  0.86078829  0.18337891     1.59700
Cd1149     Cd  0.66818519  0.83259452  0.12468976     1.59600
O1150       O  0.75836814  0.88085020  0.14857003    -0.79800
O1151       O  0.66742402  0.83200359  0.16832462    -1.90300
Cd1152     Cd  0.64009723  0.85797781  0.18210757     1.59900
O1153       O  0.72292111  0.85512669  0.10909472    -0.79800
O1154       O  0.59340974  0.82086162  0.20605380    -0.78400
C1155       C  0.61945164  0.74528125  0.12130130     0.84100
C1156       C  0.71153351  0.78857938  0.21346554     0.83800
O1157       O  0.59829162  0.76857019  0.20959621    -0.77400
C1158       C  0.70776851  0.91993775  0.21628144     0.84600
O1159       O  0.62068284  0.74187304  0.14884645    -0.77500
C1160       C  0.75500307  0.87471445  0.12121408     0.84700
C1161       C  0.62727199  0.87822046  0.11989360     0.85000
O1162       O  0.64628643  0.86500387  0.10798379    -0.79900
C1163       C  0.50151088  0.49899789  0.01962256    -0.01400
C1164       C  0.83628672  0.66798353  0.31710981    -0.01400
C1165       C  0.90993712  0.97014752  0.06611379     0.17000
C1166       C  0.88521409  0.96671391  0.08845791    -0.32000
C1167       C  0.84933731  0.93387989  0.08905427     0.21400
C1168       C  0.83816716  0.90605788  0.06791710     0.03600
C1169       C  0.86346114  0.90911883  0.04593635    -0.21700
C1170       C  0.89984713  0.94173645  0.04578852     0.12800
S1171       S  0.95461300  0.00732233  0.06232800    -0.05400
C1172       C  0.96146403  0.98483382  0.03275279    -0.08900
C1173       C  0.92928810  0.94924362  0.02730344    -0.25500
S1174       S  0.79259191  0.86924398  0.07193139    -0.02700
C1175       C  0.78932689  0.89101007  0.10300563    -0.16100
C1176       C  0.82172583  0.92514025  0.10945851    -0.14100
H1177       H  0.89372203  0.98857941  0.10483786     0.21200
H1178       H  0.85524658  0.88699245  0.02982404     0.17300
H1179       H  0.92739811  0.92882131  0.01155903     0.19800
H1180       H  0.82472961  0.94287858  0.12791925     0.13200
C1181       C  0.56621323  0.66151527  0.06878202     0.17000
C1182       C  0.54327805  0.63559568  0.04733882    -0.32000
C1183       C  0.54409560  0.60141096  0.04458867     0.21400
C1184       C  0.56720403  0.59400738  0.06201690     0.03600
C1185       C  0.58994233  0.61966776  0.08336831    -0.21700
C1186       C  0.58844962  0.65317895  0.08663163     0.12800
S1187       S  0.56969158  0.70464854  0.07585500    -0.05400
C1188       C  0.60053371  0.71062686  0.10355799    -0.08900
C1189       C  0.60767308  0.68088060  0.10688620    -0.25500
S1190       S  0.56266891  0.55049362  0.05703819    -0.02700
C1191       C  0.52748987  0.54011979  0.03153624    -0.16100
C1192       C  0.52168843  0.57107501  0.02687197    -0.14100
H1193       H  0.52510892  0.64145770  0.03382570     0.21200
H1194       H  0.60731106  0.61326644  0.09739775     0.17300
H1195       H  0.62672187  0.68007229  0.12282798     0.19800
H1196       H  0.49980682  0.57038450  0.01338291     0.13200
C1197       C  0.53175228  0.93805495  0.06773428     0.17000
C1198       C  0.53674096  0.91816737  0.09069603    -0.32000
C1199       C  0.56818378  0.91342874  0.08942141     0.21400
C1200       C  0.59312039  0.92697825  0.06602460     0.03600
C1201       C  0.58854592  0.94775839  0.04337624    -0.21700
C1202       C  0.55749468  0.95334195  0.04509423     0.12800
S1203       S  0.49590098  0.94733968  0.06560452    -0.05400
C1204       C  0.51567390  0.97341687  0.03365812    -0.08900
C1205       C  0.54931001  0.97444559  0.02618231    -0.25500
S1206       S  0.62869428  0.91673916  0.06826291    -0.02700
C1207       C  0.61039963  0.89543864  0.10159427    -0.16100
C1208       C  0.57822453  0.89578478  0.11004291    -0.14100
H1209       H  0.51718078  0.90719387  0.10889558     0.21200
H1210       H  0.60843523  0.95934596  0.02540061     0.17300
H1211       H  0.56795891  0.99033094  0.00843161     0.19800
H1212       H  0.56280071  0.88345102  0.13014179     0.13200
C1213       C  0.74437230  0.72332435  0.24663030     0.17000
C1214       C  0.75127042  0.69346426  0.25269589    -0.32000
C1215       C  0.77601453  0.69846368  0.27541480     0.21400
C1216       C  0.79260360  0.73137860  0.29175461     0.03600
C1217       C  0.78619649  0.76170590  0.28549345    -0.21700
C1218       C  0.76198148  0.75703343  0.26227879     0.12800
S1219       S  0.71515220  0.72229754  0.21992720    -0.05400
C1220       C  0.72746427  0.76823532  0.22919426    -0.08900
C1221       C  0.75277603  0.78334898  0.25205127    -0.25500
S1222       S  0.82229646  0.73178703  0.31777073    -0.02700
C1223       C  0.81323327  0.68687994  0.30640304    -0.16100
C1224       C  0.78783219  0.67347754  0.28321680    -0.14100
H1225       H  0.73820388  0.66751793  0.23996109     0.21200
H1226       H  0.79990873  0.78790788  0.29781898     0.17300
H1227       H  0.76336629  0.81164306  0.26086482     0.19800
H1228       H  0.77975853  0.64781119  0.27097966     0.13200
C1229       C  0.80567725  0.57048194  0.27696667     0.17000
C1230       C  0.80433812  0.54162567  0.25967655    -0.32000
C1231       C  0.76890113  0.00954293  0.25449365     0.21400
C1232       C  0.73619320  0.00614087  0.26623448     0.03600
C1233       C  0.73785853  0.53445096  0.28473469    -0.21700
C1234       C  0.77355154  0.56675773  0.28983351     0.12800
S1235       S  0.84513727  0.61329843  0.28235563    -0.05400
C1236       C  0.81924640  0.62731333  0.30358878    -0.08900
C1237       C  0.78115696  0.59850477  0.30570273    -0.25500
S1238       S  0.69573507  0.96631266  0.25507244    -0.02700
C1239       C  0.72347761  0.95400630  0.23490755    -0.16100
C1240       C  0.76187439  0.97954563  0.23696391    -0.14100
H1241       H  0.82968666  0.54477726  0.24967100     0.21200
H1242       H  0.71242187  0.53203456  0.29389647     0.17300
H1243       H  0.75939379  0.60143683  0.31646820     0.19800
H1244       H  0.78350710  0.97696972  0.22542675     0.13200
C1245       C  0.49737911  0.73247820  0.26760057     0.17000
C1246       C  0.97012701  0.70727701  0.28764120    -0.32000
C1247       C  0.93751062  0.70986727  0.29118722     0.21400
C1248       C  0.93229762  0.73611356  0.27553086     0.03600
C1249       C  0.95992137  0.76209923  0.25619701    -0.21700
C1250       C  0.99245512  0.75956280  0.25261784     0.12800
S1251       S  0.53760592  0.73221920  0.25837863    -0.05400
C1252       C  0.54799618  0.76939247  0.23447039    -0.08900
C1253       C  0.52162077  0.78114577  0.23387689    -0.25500
S1254       S  0.88922411  0.73149304  0.28023953    -0.02700
C1255       C  0.87697734  0.69336143  0.30431278    -0.16100
C1256       C  0.90674264  0.68613273  0.30801581    -0.14100
H1257       H  0.47362513  0.68588865  0.29924689     0.21200
H1258       H  0.95568201  0.78248010  0.24376469     0.17300
H1259       H  0.52322162  0.80363536  0.21987801     0.19800
H1260       H  0.90541911  0.66264760  0.32019991     0.13200
C1261       C  0.67483060  0.59960437  0.40113806     0.17000
C1262       C  0.70253953  0.62520425  0.38155724    -0.32000
C1263       C  0.73501125  0.62239742  0.37798792     0.21400
C1264       C  0.73966127  0.59546422  0.39318526     0.03600
C1265       C  0.71157699  0.56912413  0.41216206    -0.21700
C1266       C  0.67913402  0.57191275  0.41579081     0.12800
S1267       S  0.63473449  0.60014565  0.41016000    -0.05400
C1268       C  0.62340958  0.56232234  0.43364205    -0.08900
C1269       C  0.64946871  0.55009387  0.43422072    -0.25500
S1270       S  0.78266819  0.59977287  0.38836541    -0.02700
C1271       C  0.79539059  0.63843546  0.36478578    -0.16100
C1272       C  0.76611195  0.64642200  0.36153379    -0.14100
H1273       H  0.69944848  0.64708401  0.37026836     0.21200
H1274       H  0.71538993  0.54822590  0.42428188     0.17300
H1275       H  0.64730581  0.52714194  0.44797531     0.19800
H1276       H  0.76796170  0.67039600  0.34970040     0.13200
C1277       C  0.93513072  0.82495915  0.40502862     0.17000
C1278       C  0.93092825  0.79995637  0.38256954    -0.32000
C1279       C  0.89647284  0.76525582  0.38103224     0.21400
C1280       C  0.86785883  0.75582683  0.40101609     0.03600
C1281       C  0.87167586  0.78093773  0.42310783    -0.21700
C1282       C  0.90582884  0.81563661  0.42452025     0.12800
S1283       S  0.97471878  0.86830898  0.41111389    -0.05400
C1284       C  0.95085340  0.87396537  0.43964599    -0.08900
C1285       C  0.91459055  0.84375702  0.44426536    -0.25500
S1286       S  0.82995550  0.71134512  0.39713036    -0.02700
C1287       C  0.85202134  0.70436577  0.36743373    -0.16100
C1288       C  0.88758472  0.73649345  0.36169034    -0.14100
H1289       H  0.95360741  0.80701460  0.36718843     0.21200
H1290       H  0.84920186  0.77353084  0.43876321     0.17300
H1291       H  0.89553818  0.84264496  0.46108503     0.19800
H1292       H  0.90772247  0.73830565  0.34577854     0.13200
C1293       C  0.90560624  0.63423353  0.38679534     0.17000
C1294       C  0.93277169  0.63219643  0.40372219    -0.32000
C1295       C  0.92908718  0.59622376  0.40780067     0.21400
C1296       C  0.89995220  0.56361149  0.39530579     0.03600
C1297       C  0.87386744  0.56614236  0.37690896    -0.21700
C1298       C  0.87741647  0.60238050  0.37305808     0.12800
S1299       S  0.90170037  0.67375633  0.38379070    -0.05400
C1300       C  0.86129584  0.64810514  0.36294675    -0.08900
C1301       C  0.85298698  0.61041923  0.35840868    -0.25500
S1302       S  0.89808751  0.52204497  0.40625314    -0.02700
C1303       C  0.93727550  0.54936400  0.42741563    -0.16100
C1304       C  0.95087900  0.58834707  0.42568316    -0.14100
H1305       H  0.95461496  0.65723418  0.41462343     0.21200
H1306       H  0.85078572  0.54080706  0.36726653     0.17300
H1307       H  0.82849325  0.58885477  0.34703961     0.19800
H1308       H  0.97456774  0.60977854  0.43797231     0.13200
C1309       C  0.81423742  0.88550734  0.57870379     0.17000
C1310       C  0.77686878  0.85655259  0.58415801    -0.32000
C1311       C  0.75737598  0.86189446  0.60697789     0.21400
C1312       C  0.77416767  0.89463686  0.62350000     0.03600
C1313       C  0.81194927  0.92338630  0.61852051    -0.21700
C1314       C  0.83166352  0.91797061  0.59576140     0.12800
S1315       S  0.84144609  0.88530450  0.55075713    -0.05400
C1316       C  0.87720301  0.92914260  0.56230342    -0.08900
C1317       C  0.86820493  0.94298019  0.58671863    -0.25500
S1318       S  0.74450365  0.89650227  0.64856079    -0.02700
C1319       C  0.70862553  0.85161104  0.63770221    -0.16100
C1320       C  0.72050852  0.83738381  0.61488054    -0.14100
H1321       H  0.76330781  0.83124206  0.57079511     0.21200
H1322       H  0.82512969  0.94911543  0.63143029     0.17300
H1323       H  0.88679020  0.97039644  0.59655976     0.19800
H1324       H  0.70301893  0.81085744  0.60360919     0.13200
C1325       C  0.57726130  0.68935739  0.57238697     0.17000
C1326       C  0.58750267  0.72754693  0.57763532    -0.32000
C1327       C  0.60995028  0.74526575  0.60207676     0.21400
C1328       C  0.62233207  0.72611459  0.61980411     0.03600
C1329       C  0.61166989  0.68787200  0.61492997    -0.21700
C1330       C  0.58849784  0.66982865  0.59103911     0.12800
S1331       S  0.55144452  0.66309474  0.54343310    -0.05400
C1332       C  0.55493656  0.62515151  0.55717281    -0.08900
C1333       C  0.57528572  0.63277418  0.58268540    -0.25500
S1334       S  0.65158276  0.75321149  0.64667029    -0.03600
C1335       C  0.64539571  0.79100851  0.63600367    -0.16100
C1336       C  0.62291947  0.78214104  0.61102993    -0.14100
H1337       H  0.57852973  0.74278867  0.56325479     0.21200
H1338       H  0.62125041  0.67291960  0.62904855     0.17300
H1339       H  0.58115792  0.61270886  0.59394223     0.19800
H1340       H  0.61704792  0.80183752  0.59925672     0.13200
C1341       C  0.61642764  0.93227025  0.58353833     0.17000
C1342       C  0.64593393  0.92507903  0.58928748    -0.32000
C1343       C  0.63948441  0.89678896  0.61017352     0.21400
C1344       C  0.60518307  0.87662828  0.62446579     0.03600
C1345       C  0.57588224  0.88428395  0.61925077    -0.21700
C1346       C  0.58233529  0.91268411  0.59849244     0.12800
S1347       S  0.61762083  0.96294945  0.55724403    -0.05400
C1348       C  0.57196317  0.94983737  0.56673527    -0.08900
C1349       C  0.55680051  0.92310838  0.58926347    -0.25500
S1350       S  0.60195374  0.84159723  0.64699109    -0.02700
C1351       C  0.64828289  0.85449184  0.63849813    -0.16100
C1352       C  0.66412654  0.88455138  0.61796873    -0.14100
H1353       H  0.67243785  0.94022374  0.57746100     0.21200
H1354       H  0.54893312  0.86814886  0.63037339     0.17300
H1355       H  0.52809481  0.91051843  0.59731770     0.19800
H1356       H  0.69176145  0.89624917  0.60810490     0.13200
C1357       C  0.95687786  0.88999414  0.95819470     0.17000
C1358       C  0.95044779  0.85331235  0.95167129    -0.32000
C1359       C  0.92248679  0.83182794  0.93112513     0.21400
C1360       C  0.90116843  0.84589996  0.91847632     0.03600
C1361       C  0.90795550  0.88269943  0.92486609    -0.21700
C1362       C  0.93671553  0.90460673  0.94471686     0.12800
S1363       S  0.99055162  0.92117810  0.98116548    -0.05400
C1364       C  0.97856408  0.95575277  0.97257778    -0.08900
C1365       C  0.94919315  0.94195910  0.95223404    -0.25500
S1366       S  0.86858433  0.81573341  0.89413143    -0.02700
C1367       C  0.88468943  0.78429012  0.90004628    -0.16100
C1368       C  0.91343107  0.79654000  0.92041244    -0.14100
H1369       H  0.96712727  0.84241321  0.96164444     0.21200
H1370       H  0.89203861  0.89408225  0.91431371     0.17300
H1371       H  0.93806009  0.95831468  0.94207063     0.19800
H1372       H  0.92722209  0.78075781  0.92673358     0.13200
C1373       C  0.60686520  0.55773498  0.95449731     0.17000
C1374       C  0.64351498  0.58699875  0.94761970    -0.32000
C1375       C  0.66189484  0.58098651  0.92441987     0.21400
C1376       C  0.64489663  0.54696795  0.90914487     0.03600
C1377       C  0.60781087  0.51797918  0.91573153    -0.21700
C1378       C  0.58913080  0.52442916  0.93865984     0.12800
S1379       S  0.57983610  0.56015919  0.98126199    -0.05400
C1380       C  0.54253005  0.51566799  0.97117117    -0.08900
C1381       C  0.55249884  0.50065891  0.94762104    -0.25500
S1382       S  0.67272286  0.54483584  0.88245197    -0.02700
C1383       C  0.70691520  0.59072596  0.89145488    -0.16100
C1384       C  0.69726593  0.60644770  0.91407992    -0.14100
H1385       H  0.65697340  0.61346392  0.95965872     0.21200
H1386       H  0.59407009  0.49173599  0.90343105     0.17300
H1387       H  0.53366917  0.97445299  0.93639874     0.19800
H1388       H  0.71534334  0.63481578  0.92268094     0.13200
C1389       C  0.90442977  0.56263844  0.93440051     0.17000
C1390       C  0.90559118  0.53540558  0.95296861    -0.32000
C1391       C  0.94087774  0.53853903  0.95771239     0.21400
C1392       C  0.97314598  0.56729220  0.94444375     0.03600
C1393       C  0.97235087  0.59542296  0.92696023    -0.21700
C1394       C  0.93725585  0.59236692  0.92219008     0.12800
S1395       S  0.86423322  0.56170521  0.92334646    -0.05400
C1396       C  0.89209546  0.60221405  0.90253136    -0.08900
C1397       C  0.93045953  0.61555907  0.90430124    -0.25500
S1398       S  0.01184283  0.56326586  0.94945397    -0.02700
C1399       C  0.98525711  0.52233674  0.97082145    -0.16100
C1400       C  0.94768810  0.51353932  0.97344039    -0.14100
H1401       H  0.87999604  0.51204729  0.96241023     0.21200
H1402       H  0.99776897  0.61780446  0.91654684     0.17300
H1403       H  0.95206442  0.63995034  0.89219576     0.19800
H1404       H  0.92546725  0.48853929  0.98429653     0.13200
C1405       C  0.69561776  0.76363811  0.72924360     0.17000
C1406       C  0.69895346  0.74085548  0.75073316    -0.32000
C1407       C  0.73226406  0.73944060  0.75128630     0.21400
C1408       C  0.76067303  0.75885008  0.73077286     0.03600
C1409       C  0.75731684  0.78193813  0.70922149    -0.21700
C1410       C  0.72418673  0.78421412  0.70923213     0.12800
S1411       S  0.65857222  0.77088955  0.72670510    -0.05400
C1412       C  0.68121034  0.80311253  0.69808205    -0.08900
C1413       C  0.71648309  0.80713613  0.69159978    -0.25500
S1414       S  0.79876874  0.75278466  0.73541768    -0.02700
C1415       C  0.77643662  0.72503420  0.76584766    -0.16100
C1416       C  0.74127596  0.72041707  0.77155784    -0.14100
H1417       H  0.67689562  0.72566899  0.76684858     0.21200
H1418       H  0.77980749  0.79803138  0.69360973     0.17300
H1419       H  0.73657499  0.82692721  0.67591812     0.19800
H1420       H  0.72320449  0.70392756  0.78964321     0.13200
C1421       C  0.56007189  0.76943691  0.71231608     0.17000
C1422       C  0.52263665  0.74086509  0.71797235    -0.32000
C1423       C  0.50409920  0.74633034  0.74143409     0.21400
C1424       C  0.02205492  0.77875095  0.75850735     0.03600
C1425       C  0.55913850  0.80773691  0.75229391    -0.21700
C1426       C  0.57763617  0.80221399  0.72882220     0.12800
S1427       S  0.58849838  0.76666628  0.68674496    -0.05400
C1428       C  0.62510220  0.81120604  0.69748069    -0.08900
C1429       C  0.61436128  0.82614271  0.72051276    -0.25500
S1430       S  0.99583721  0.77864749  0.78737341    -0.02700
C1431       C  0.96015318  0.73470156  0.77606212    -0.16100
C1432       C  0.96824003  0.72118382  0.75113509    -0.14100
H1433       H  0.50893062  0.71504903  0.70517400     0.21200
H1434       H  0.57331192  0.83300623  0.76565371     0.17300
H1435       H  0.63268122  0.85226489  0.73196831     0.19800
H1436       H  0.94932981  0.69390745  0.74121838     0.13200
C1437       C  0.73805236  0.49370362  0.73317302     0.17000
C1438       C  0.71325364  0.96726761  0.71281864    -0.32000
C1439       C  0.70956972  0.93076846  0.71255893     0.21400
C1440       C  0.72987989  0.92140569  0.73153718     0.03600
C1441       C  0.75383674  0.94725507  0.75228879    -0.21700
C1442       C  0.75728794  0.98341256  0.75274414     0.12800
S1443       S  0.74720268  0.53965255  0.73708888    -0.05400
C1444       C  0.77652943  0.54440900  0.76563185    -0.08900
C1445       C  0.77897898  0.51214842  0.77153050    -0.25500
S1446       S  0.72228557  0.87651610  0.72778243    -0.02700
C1447       C  0.69046314  0.86875284  0.69997815    -0.16100
C1448       C  0.68649319  0.90074460  0.69486962    -0.14100
H1449       H  0.69747103  0.47480009  0.69788749     0.21200
H1450       H  0.76913077  0.93948587  0.76746089     0.17300
H1451       H  0.79567617  0.50981387  0.78882679     0.19800
H1452       H  0.66704906  0.90210990  0.67981727     0.13200
loop_ 
_geom_bond_atom_site_label_1 
_geom_bond_atom_site_label_2 
_geom_bond_distance 
_geom_bond_site_symmetry_2 
_ccdc_geom_bond_type 
O1           C17   1.277       .  A
O1           Zn7   2.049       .  S
C2           O18   1.278       .  A
C2           O15   1.273       .  A
C2          C307   1.474       .  S
O3           C16   1.275       .  A
O3          Cd10   2.069       .  S
O4           C22   1.273       .  A
O4          Cd13   2.060       .  S
O5           C19   1.275       .  A
O5           Cd9   2.074       .  S
O6           C17   1.274       .  A
O6           Cd9   2.069       .  S
Zn7          O18   2.047       .  S
Zn7          O20   2.027       .  S
Zn7          O12   1.954       .  S
O8           C19   1.272       .  A
O8          Cd13   2.060       .  S
Cd9          O11   2.075       .  S
Cd9          O12   1.992       .  S
Cd10         O14   2.076       .  S
Cd10         O23   2.087       .  S
Cd10         O12   2.008       .  S
O11          C21   1.276       .  A
O12         Cd13   1.994       .  S
Cd13         O15   2.062       .  S
O14          C21   1.273       .  A
C16          O20   1.276       .  A
C16         C342   1.467       .  S
C17         C278   1.477       .  S
C19         C294   1.465       .  S
C21         C326   1.471       .  S
C22          O23   1.275       .  A
C22         C355   1.469       .  S
C24          C50   1.647       .  S
C24         C323   1.560       .  S
C24         C339   1.556       .  S
C24         C358   1.556       .  S
C25          C74   1.643   1_556  S
C25         C291   1.564   1_565  S
C25        C1364   1.570   1_455  S
C25        C1036   1.562   1_465  S
O26          C42   1.274       .  A
O26        Zn758   2.026       .  S
C27          O43   1.272       .  A
C27          O40   1.273       .  A
C27         C179   1.471       .  S
O28          C41   1.279       .  A
O28        Cd761   2.108       .  S
O29          C47   1.272       .  A
O29         Cd38   2.053       .  S
O30          C44   1.275   1_565  A
O30        Cd397   2.087       .  S
O31          C42   1.271       .  A
O31         Cd34   2.041       .  S
Zn32         O45   2.004       .  S
Zn32        O752   2.026       .  S
Zn32        O406   2.011       .  S
Zn32         O37   1.949       .  S
O33          C44   1.272       .  A
O33        Cd764   2.050       .  S
Cd34         O36   2.061       .  S
Cd34        O393   2.087       .  S
Cd34        O763   1.997       .  S
Cd35         O39   2.112       .  S
Cd35        O754   2.108       .  S
Cd35       O1137   2.099       .  S
Cd35        O763   2.021       .  S
O36          C46   1.273       .  A
O37        Cd760   1.997   1_455  S
O37        Cd761   2.021       .  S
O37        Cd401   1.993       .  S
Cd38         O40   2.073       .  S
Cd38        O759   2.050   1_455  S
Cd38        O400   1.993   1_545  S
O39          C46   1.280       .  A
C41          O45   1.272       .  A
C41         C259   1.473       .  S
C42         C195   1.460       .  S
O43        Zn395   2.011   1_545  S
C44         C214   1.471       .  S
C46         C227   1.476       .  S
C47          O48   1.280       .  A
C47         C243   1.469       .  S
O48       Cd1124   2.099   1_545  S
C49          C75   1.633       .  S
C49         C182   1.562       .  S
C49         C198   1.558       .  S
C49         C211   1.559       .  S
C50         C230   1.563       .  S
C50         C246   1.563       .  S
C50         C262   1.566       .  S
O51          C67   1.273       .  A
O51         Zn57   2.003       .  S
C52          O68   1.275       .  A
C52          O65   1.272       .  A
C52         C163   1.467       .  S
O53          C66   1.273       .  A
O53         Cd60   2.072       .  S
O54          C72   1.274       .  A
O54         Cd63   2.057       .  S
O55          C69   1.276       .  A
O55         Cd59   2.080       .  S
O56          C67   1.276       .  A
O56         Cd59   2.089       .  S
Zn57         O68   2.033       .  S
Zn57         O70   2.032       .  S
Zn57         O62   1.944       .  S
O58          C69   1.274       .  A
O58         Cd63   2.075       .  S
Cd59         O61   2.083       .  S
Cd59         O62   2.003       .  S
Cd60         O64   2.075       .  S
Cd60         O73   2.070       .  S
Cd60         O62   2.004       .  S
O61          C71   1.278       .  A
O62         Cd63   1.992       .  S
Cd63         O65   2.047       .  S
O64          C71   1.275       .  A
C66          O70   1.275       .  A
C66          C99   1.469       .  S
C67         C131   1.469       .  S
C69         C150   1.475       .  S
C71          C86   1.472       .  S
C72          O73   1.274       .  A
C72         C118   1.465       .  S
C74         C102   1.559   1_565  S
C74        C1172   1.561   1_455  S
C74         C478   1.555       .  S
C75         C134   1.563       .  S
C75         C147   1.563       .  S
C75         C166   1.562       .  S
C76          S82   1.691       .  A
C76          C81   1.381       .  A
C76          C77   1.399       .  A
C77          C78   1.398       .  A
C77          H88   1.083       .  S
C78          C87   1.369       .  A
C78          C79   1.387       .  A
C79          S85   1.711       .  A
C79          C80   1.407       .  A
C80          C81   1.407       .  A
C80          H89   1.083       .  S
C81          C84   1.377       .  A
S82          C83   1.743       .  A
C83        C1163   1.560       .  S
C83          C84   1.402       .  A
C84          H90   1.077       .  S
S85          C86   1.726       .  A
C86          C87   1.384       .  A
C87          H91   1.083       .  S
C92          S98   1.712       .  A
C92          C97   1.387       .  A
C92          C93   1.407       .  A
C93          C94   1.407       .  A
C93         H104   1.083       .  S
C94         C103   1.377       .  A
C94          C95   1.382       .  A
C95         S101   1.692       .  A
C95          C96   1.398       .  A
C96          C97   1.398       .  A
C96         H105   1.083       .  S
C97         C100   1.369       .  A
S98          C99   1.725       .  A
C99         C100   1.382       .  A
C100        H106   1.083       .  S
S101        C102   1.741       .  A
C102        C103   1.402       .  A
C103        H107   1.080   1_455  S
C108        S114   1.695   1_455  A
C108        C113   1.380       .  A
C108        C109   1.396       .  A
C109        C110   1.398       .  A
C109        H120   1.083       .  S
C110        C119   1.364       .  A
C110        C111   1.387       .  A
C111        S117   1.709       .  A
C111        C112   1.402       .  A
C112        C113   1.404       .  A
C112        H121   1.083       .  S
C113        C116   1.367       .  A
S114        C115   1.740   1_655  A
C115        C437   1.555       .  S
C115        C116   1.402       .  A
C116        H122   1.075       .  S
S117        C118   1.723       .  A
C118        C119   1.383       .  A
C119        H123   1.083       .  S
C124        S130   1.701       .  A
C124        C129   1.387       .  A
C124        C125   1.398       .  A
C125        C126   1.399       .  A
C125        H136   1.084       .  S
C126        C135   1.368       .  A
C126        C127   1.380       .  A
C127        S133   1.701       .  A
C127        C128   1.406       .  A
C128        C129   1.405       .  A
C128        H137   1.082       .  S
C129        C132   1.376       .  A
S130        C131   1.720       .  A
C131        C132   1.388       .  A
C132        H138   1.082       .  S
S133        C134   1.746       .  A
C134        C135   1.399       .  A
C135        H139   1.081       .  S
C140        S146   1.691       .  A
C140        C145   1.381       .  A
C140        C141   1.397       .  A
C141        C505   1.397       .  A
C141        H152   1.083       .  S
C142        C151   1.368       .  A
C142        C143   1.386       .  A
C142        C504   1.397       .  A
C143        S149   1.711       .  A
C143        C507   1.408       .  A
C144        C145   1.407       .  A
C144        C506   1.408       .  A
C144        H153   1.082       .  S
C145        C148   1.376       .  A
S146        C147   1.738       .  A
C147        C148   1.402       .  A
C148        H154   1.079       .  S
S149        C150   1.728       .  A
C150        C151   1.384       .  A
C151        H155   1.084       .  S
C156        S162   1.709   1_655  A
C156        C887   1.387       .  A
C156        C883   1.402       .  A
C157        C158   1.404       .  A
C157        C882   1.402       .  A
C157        H894   1.081       .  S
C158        C167   1.368       .  A
C158        C159   1.380       .  A
C159        S165   1.694       .  A
C159        C160   1.398       .  A
C160        C161   1.399       .  A
C160        H169   1.082       .  S
C161        C882   1.387       .  A
C161        C890   1.365       .  A
S162        C163   1.722       .  A
C163        C164   1.385       .  A
C164        C887   1.365   1_455  A
C164        H170   1.083       .  S
S165        C166   1.742       .  A
C166        C167   1.402       .  A
C167        H171   1.075       .  S
H168        C883   1.081       .  S
C172        S178   1.707       .  A
C172        C177   1.387       .  A
C172        C173   1.401       .  A
C173        C174   1.403       .  A
C173        H184   1.083       .  S
C174        C183   1.369       .  A
C174        C175   1.380       .  A
C175        S181   1.697       .  A
C175        C176   1.401       .  A
C176        C177   1.402       .  A
C176        H185   1.083       .  S
C177        C180   1.370       .  A
S178        C179   1.722       .  A
C179        C180   1.387       .  A
C180        H186   1.083       .  S
S181        C182   1.741       .  A
C182        C183   1.400       .  A
C183        H187   1.075       .  S
C188        S194   1.710       .  A
C188        C193   1.387       .  A
C188        C189   1.401       .  A
C189        C190   1.404       .  A
C189        H200   1.083       .  S
C190        C199   1.368       .  A
C190        C191   1.381       .  A
C191        S197   1.693       .  A
C191        C192   1.396       .  A
C192        C193   1.397       .  A
C192        H201   1.083       .  S
C193        C196   1.362       .  A
S194        C195   1.721       .  A
C195        C196   1.382       .  A
C196        H202   1.083       .  S
S197        C198   1.740       .  A
C198        C199   1.401       .  A
C199        H203   1.077       .  S
C204        S210   1.690       .  A
C204        C209   1.381       .  A
C204        C205   1.395       .  A
C205        C206   1.396       .  A
C205        H216   1.083       .  S
C206        C215   1.363       .  A
C206        C207   1.386       .  A
C207        S213   1.714       .  A
C207        C208   1.407       .  A
C208        C209   1.407       .  A
C208        H217   1.083       .  S
C209        C212   1.374       .  A
S210        C211   1.739       .  A
C211        C212   1.402       .  A
C212        H218   1.081       .  S
S213        C214   1.726       .  A
C214        C215   1.383       .  A
C215        H219   1.084       .  S
C220        S226   1.704       .  A
C220        C225   1.387       .  A
C220        C221   1.401       .  A
C221        C222   1.402       .  A
C221        H232   1.083       .  S
C222        C231   1.371       .  A
C222        C223   1.380       .  A
C223        S229   1.705       .  A
C223        C224   1.407       .  A
C224        C225   1.407       .  A
C224        H233   1.083       .  S
C225        C228   1.379       .  A
S226        C227   1.723       .  A
C227        C228   1.389       .  A
C228        H234   1.083       .  S
S229        C230   1.741       .  A
C230        C231   1.402       .  A
C231        H235   1.081       .  S
C236        S242   1.707       .  A
C236        C241   1.387       .  A
C236        C237   1.405       .  A
C237        C238   1.405       .  A
C237        H248   1.083       .  S
C238        C247   1.374       .  A
C238        C239   1.380       .  A
C239        S245   1.693       .  A
C239        C240   1.400       .  A
C240        C241   1.399       .  A
C240        H249   1.083       .  S
C241        C244   1.371       .  A
S242        C243   1.725       .  A
C243        C244   1.383       .  A
C244        H250   1.083       .  S
S245        C246   1.737       .  A
C246        C247   1.403       .  A
C247        H251   1.082       .  S
C252        S258   1.705       .  A
C252        C257   1.387       .  A
C252        C253   1.405       .  A
C253        C254   1.404       .  A
C253        H264   1.083       .  S
C254        C263   1.377       .  A
C254        C255   1.380       .  A
C255        S261   1.695       .  A
C255        C256   1.405       .  A
C256        C257   1.403       .  A
C256        H265   1.083       .  S
C257        C260   1.377       .  A
S258        C259   1.724       .  A
C259        C260   1.387       .  A
C260        H266   1.083       .  S
S261        C262   1.741       .  A
C262        C263   1.402       .  A
C263        H267   1.081       .  S
C268        S274   1.697       .  A
C268        C273   1.380       .  A
C268        C269   1.406       .  A
C269        C270   1.404       .  A
C269        H280   1.083       .  S
C270        C279   1.378       .  A
C270        C271   1.387       .  A
C271        S277   1.705       .  A
C271        C272   1.404       .  A
C272        C273   1.403       .  A
C272        H281   1.083       .  S
C273        C276   1.376       .  A
S274        C275   1.743       .  A
C275       C1114   1.570       .  S
C275        C276   1.403       .  A
C276        H282   1.078       .  S
S277        C278   1.723       .  A
C278        C279   1.389       .  A
C279        H283   1.083       .  S
C284        S290   1.692       .  A
C284        C289   1.380       .  A
C284        C285   1.398       .  A
C285        C286   1.398       .  A
C285        H296   1.083       .  S
C286        C295   1.368       .  A
C286        C287   1.387       .  A
C287        S293   1.708       .  A
C287        C288   1.404       .  A
C288        C289   1.405       .  A
C288        H297   1.083   1_545  S
C289        C292   1.373       .  A
S290        C291   1.741       .  A
C291        C292   1.404       .  A
C292        H661   1.081   1_545  S
S293        C294   1.724       .  A
C294        C295   1.382       .  A
C295        H299   1.083       .  S
H298        C655   1.081       .  S
C300        S306   1.708       .  A
C300        C305   1.387       .  A
C300        C301   1.406       .  A
C301        C302   1.405       .  A
C301        H312   1.083       .  S
C302        C311   1.376       .  A
C302        C303   1.380       .  A
C303        S309   1.691       .  A
C303        C304   1.400       .  A
C304        C305   1.399       .  A
C304        H313   1.083       .  S
C305        C308   1.372       .  A
S306        C307   1.726       .  A
C307        C308   1.385       .  A
C308        H314   1.083       .  S
S309        C310   1.742       .  A
C310        C751   1.562   1_545  S
C310        C311   1.401       .  A
C311        H315   1.077   1_545  S
C316        S322   1.691       .  A
C316        C321   1.382       .  A
C316        C317   1.397       .  A
C317        C318   1.397       .  A
C317        H328   1.083       .  S
C318        C327   1.367       .  A
C318        C319   1.386       .  A
C319        S325   1.713       .  A
C319        C320   1.408       .  A
C320        C321   1.408       .  A
C320        H329   1.083       .  S
C321        C324   1.377       .  A
S322        C323   1.741       .  A
C323        C324   1.404       .  A
C324        H330   1.077       .  S
S325        C326   1.726       .  A
C326        C327   1.382       .  A
C327        H331   1.083       .  S
C332        S338   1.699       .  A
C332        C337   1.382       .  A
C332        C333   1.401       .  A
C333        C334   1.401       .  A
C333        H344   1.083       .  S
C334       C1069   1.369   1_455  A
C334       C1061   1.387       .  A
C335        S341   1.706       .  A
C335       C1060   1.387       .  A
C335       C1062   1.400       .  A
C336        C337   1.402       .  A
C336       C1061   1.400       .  A
C336        H345   1.083       .  S
C337        C340   1.368       .  A
S338        C339   1.741       .  A
C339        C340   1.401       .  A
C340        H346   1.081       .  S
S341        C342   1.722       .  A
C342        C343   1.385       .  A
C343       C1060   1.369       .  A
C343        H347   1.083       .  S
C348        S354   1.712   1_565  A
C348        C716   1.387       .  A
C348        C712   1.406       .  A
C349        C350   1.407       .  A
C349        C711   1.406       .  A
C349        H723   1.083       .  S
C350        C359   1.375       .  A
C350        C351   1.382       .  A
C351        S357   1.691       .  A
C351        C352   1.397       .  A
C352        C353   1.397       .  A
C352        H361   1.083       .  S
C353        C711   1.387       .  A
C353        C719   1.367       .  A
S354        C355   1.725       .  A
C355        C356   1.383       .  A
C356        C716   1.367   1_545  A
C356        H362   1.083       .  S
S357        C358   1.740       .  A
C358        C359   1.401       .  A
C359        H363   1.078       .  S
H360        C712   1.083       .  S
O364        C380   1.277       .  A
O364       Zn370   2.049       .  S
C365        O381   1.278       .  A
C365        O378   1.273       .  A
C365        C670   1.474       .  S
O366        C379   1.275       .  A
O366       Cd373   2.069       .  S
O367        C385   1.273       .  A
O367       Cd376   2.060       .  S
O368        C382   1.275       .  A
O368       Cd372   2.074       .  S
O369        C380   1.274       .  A
O369       Cd372   2.069       .  S
Zn370       O381   2.047       .  S
Zn370       O383   2.027       .  S
Zn370       O375   1.954       .  S
O371        C382   1.272       .  A
O371       Cd376   2.060       .  S
Cd372       O374   2.075       .  S
Cd372       O375   1.992       .  S
Cd373       O377   2.076       .  S
Cd373       O386   2.087       .  S
Cd373       O375   2.008       .  S
O374        C384   1.276       .  A
O375       Cd376   1.994       .  S
Cd376       O378   2.062       .  S
O377        C384   1.273       .  A
C379        O383   1.276       .  A
C379        C705   1.467       .  S
C380        C641   1.477       .  S
C382        C657   1.465       .  S
C384        C689   1.471       .  S
C385        O386   1.275       .  A
C385        C718   1.469       .  S
C387        C413   1.647       .  S
C387        C686   1.560       .  S
C387        C702   1.556       .  S
C387        C721   1.556       .  S
C388        C437   1.643   1_556  S
C388       C1001   1.570   1_455  S
C388        C654   1.564       .  S
C388       C1399   1.562   1_455  S
O389        C405   1.274       .  A
O389      Zn1121   2.026       .  S
C390        O406   1.272       .  A
C390        O403   1.273       .  A
C390        C542   1.471       .  S
O391        C404   1.279       .  A
O391      Cd1124   2.108       .  S
O392        C410   1.272       .  A
O392       Cd401   2.053       .  S
O393        C407   1.275       .  A
O394        C405   1.271       .  A
O394       Cd397   2.041       .  S
Zn395      O1115   2.026       .  S
Zn395       O408   2.004       .  S
Zn395       O400   1.949       .  S
O396        C407   1.272       .  A
O396      Cd1127   2.050       .  S
Cd397       O399   2.061       .  S
Cd397      O1126   1.997       .  S
Cd398      O1117   2.108       .  S
Cd398       O402   2.112       .  S
Cd398       O774   2.099   1_565  S
Cd398      O1126   2.021       .  S
O399        C409   1.273       .  A
O400      Cd1123   1.997   1_455  S
O400      Cd1124   2.021       .  S
Cd401      O1122   2.050   1_455  S
Cd401       O403   2.072       .  S
O402        C409   1.280       .  A
C404        O408   1.273       .  A
C404        C622   1.473       .  S
C405        C558   1.460       .  S
C407        C577   1.471       .  S
C409        C590   1.476       .  S
C410        O411   1.280       .  A
C410        C606   1.469       .  S
O411       Cd761   2.099       .  S
C412        C438   1.633       .  S
C412        C545   1.562       .  S
C412        C561   1.558       .  S
C412        C574   1.559       .  S
C413        C593   1.563       .  S
C413        C609   1.563       .  S
C413        C625   1.566       .  S
O414        C430   1.273       .  A
O414       Zn420   2.004       .  S
C415        O431   1.275       .  A
C415        O428   1.272       .  A
C415        C526   1.467       .  S
O416        C429   1.273       .  A
O416       Cd423   2.072       .  S
O417        C435   1.274       .  A
O417       Cd426   2.057       .  S
O418        C432   1.276       .  A
O418       Cd422   2.080       .  S
O419        C430   1.276       .  A
O419       Cd422   2.089       .  S
Zn420       O431   2.033       .  S
Zn420       O433   2.031       .  S
Zn420       O425   1.944       .  S
O421        C432   1.274       .  A
O421       Cd426   2.075       .  S
Cd422       O424   2.083       .  S
Cd422       O425   2.003       .  S
Cd423       O427   2.075       .  S
Cd423       O436   2.070       .  S
Cd423       O425   2.004       .  S
O424        C434   1.278       .  A
O425       Cd426   1.992       .  S
Cd426       O428   2.047       .  S
O427        C434   1.275       .  A
C429        O433   1.275       .  A
C429        C462   1.469       .  S
C430        C494   1.469       .  S
C432        C513   1.475       .  S
C434        C449   1.472       .  S
C435        O436   1.273       .  A
C435        C481   1.465       .  S
C437        C809   1.560   1_455  S
C437        C465   1.559       .  S
C438        C497   1.563       .  S
C438        C510   1.563       .  S
C438        C529   1.562       .  S
C439        S445   1.691   1_565  A
C439        C444   1.381       .  A
C439        C440   1.399       .  A
C440        C441   1.398       .  A
C440        H451   1.083       .  S
C441        C450   1.369       .  A
C441        C442   1.387       .  A
C442        S448   1.711       .  A
C442        C443   1.407       .  A
C443        C444   1.407       .  A
C443        H452   1.083       .  S
C444        C447   1.377       .  A
S445        C446   1.743   1_545  A
C446        C800   1.561       .  S
C446        C447   1.402       .  A
C447        H453   1.077       .  S
S448        C449   1.726       .  A
C449        C450   1.384       .  A
C450        H454   1.083       .  S
C455        S461   1.712       .  A
C455        C460   1.387       .  A
C455        C456   1.407       .  A
C456        C457   1.407       .  A
C456        H467   1.083       .  S
C457        C466   1.377       .  A
C457        C458   1.382       .  A
C458        S464   1.692       .  A
C458        C459   1.398       .  A
C459        C460   1.397       .  A
C459        H468   1.083       .  S
C460        C463   1.369       .  A
S461        C462   1.725       .  A
C462        C463   1.382       .  A
C463        H469   1.083       .  S
S464        C465   1.741       .  A
C465        C466   1.402       .  A
C466        H470   1.080   1_455  S
C471        S477   1.695   1_455  A
C471        C476   1.380       .  A
C471        C472   1.396       .  A
C472        C473   1.398       .  A
C472        H483   1.083       .  S
C473        C482   1.363       .  A
C473        C474   1.387       .  A
C474        S480   1.709       .  A
C474        C475   1.402       .  A
C475        C476   1.404       .  A
C475        H484   1.083       .  S
C476        C479   1.367       .  A
S477        C478   1.740   1_655  A
C478        C479   1.402       .  A
C479        H485   1.075       .  S
S480        C481   1.723       .  A
C481        C482   1.383       .  A
C482        H486   1.083       .  S
C487        S493   1.701       .  A
C487        C492   1.387       .  A
C487        C488   1.398       .  A
C488        C489   1.399       .  A
C488        H499   1.085       .  S
C489        C498   1.368       .  A
C489        C490   1.381       .  A
C490        S496   1.701       .  A
C490        C491   1.406       .  A
C491        C492   1.405       .  A
C491        H500   1.082       .  S
C492        C495   1.376       .  A
S493        C494   1.720       .  A
C494        C495   1.388       .  A
C495        H501   1.082       .  S
S496        C497   1.746       .  A
C497        C498   1.399       .  A
C498        H502   1.081       .  S
C503        S509   1.691       .  A
C503        C508   1.381       .  A
C503        C504   1.397       .  A
C504        H515   1.083       .  S
C505        C514   1.368   1_545  A
C505        C506   1.386       .  A
C506        S512   1.712   1_545  A
C507        C508   1.407       .  A
C507        H516   1.082       .  S
C508        C511   1.376       .  A
S509        C510   1.738       .  A
C510        C511   1.402       .  A
C511        H517   1.079       .  S
S512        C513   1.728       .  A
C513        C514   1.384       .  A
C514        H518   1.084       .  S
C519        S525   1.709   1_655  A
C519       C1250   1.387       .  A
C519       C1246   1.402       .  A
C520       C1245   1.402       .  A
C520        C521   1.404       .  A
C520       H1257   1.081       .  S
C521        C530   1.368       .  A
C521        C522   1.380       .  A
C522        S528   1.694       .  A
C522        C523   1.398       .  A
C523        C524   1.399       .  A
C523        H532   1.082       .  S
C524       C1245   1.387       .  A
C524       C1253   1.365       .  A
S525        C526   1.722       .  A
C526        C527   1.385       .  A
C527       C1250   1.365   1_455  A
C527        H533   1.083       .  S
S528        C529   1.742       .  A
C529        C530   1.402       .  A
C530        H534   1.075       .  S
H531       C1246   1.081       .  S
C535        S541   1.707       .  A
C535        C540   1.387       .  A
C535        C536   1.401       .  A
C536        C537   1.403       .  A
C536        H547   1.083       .  S
C537        C546   1.369       .  A
C537        C538   1.380       .  A
C538        S544   1.697       .  A
C538        C539   1.401       .  A
C539        C540   1.402       .  A
C539        H548   1.083       .  S
C540        C543   1.369       .  A
S541        C542   1.722       .  A
C542        C543   1.387       .  A
C543        H549   1.083       .  S
S544        C545   1.741       .  A
C545        C546   1.400       .  A
C546        H550   1.075       .  S
C551        S557   1.710       .  A
C551        C556   1.387       .  A
C551        C552   1.401       .  A
C552        C553   1.404       .  A
C552        H563   1.083       .  S
C553        C562   1.368       .  A
C553        C554   1.381       .  A
C554        S560   1.693       .  A
C554        C555   1.396       .  A
C555        C556   1.397       .  A
C555        H564   1.083       .  S
C556        C559   1.362       .  A
S557        C558   1.721       .  A
C558        C559   1.382       .  A
C559        H565   1.083       .  S
S560        C561   1.740       .  A
C561        C562   1.401       .  A
C562        H566   1.077       .  S
C567        S573   1.690       .  A
C567        C572   1.381       .  A
C567        C568   1.395       .  A
C568        C569   1.396       .  A
C568        H579   1.083       .  S
C569        C578   1.363       .  A
C569        C570   1.386       .  A
C570        S576   1.714       .  A
C570        C571   1.407       .  A
C571        C572   1.407       .  A
C571        H580   1.083       .  S
C572        C575   1.374       .  A
S573        C574   1.739       .  A
C574        C575   1.402       .  A
C575        H581   1.081       .  S
S576        C577   1.726       .  A
C577        C578   1.383       .  A
C578        H582   1.084       .  S
C583        S589   1.704       .  A
C583        C588   1.387       .  A
C583        C584   1.401       .  A
C584        C585   1.402       .  A
C584        H595   1.083       .  S
C585        C594   1.371       .  A
C585        C586   1.380       .  A
C586        S592   1.705       .  A
C586        C587   1.407       .  A
C587        C588   1.407       .  A
C587        H596   1.083       .  S
C588        C591   1.379       .  A
S589        C590   1.723       .  A
C590        C591   1.389       .  A
C591        H597   1.083       .  S
S592        C593   1.741       .  A
C593        C594   1.402       .  A
C594        H598   1.081       .  S
C599        S605   1.707       .  A
C599        C604   1.387       .  A
C599        C600   1.405       .  A
C600        C601   1.405       .  A
C600        H611   1.083       .  S
C601        C610   1.374       .  A
C601        C602   1.380       .  A
C602        S608   1.693       .  A
C602        C603   1.400       .  A
C603        C604   1.399       .  A
C603        H612   1.083       .  S
C604        C607   1.371       .  A
S605        C606   1.725       .  A
C606        C607   1.383       .  A
C607        H613   1.083       .  S
S608        C609   1.737       .  A
C609        C610   1.403       .  A
C610        H614   1.082       .  S
C615        S621   1.705       .  A
C615        C620   1.387       .  A
C615        C616   1.405       .  A
C616        C617   1.404       .  A
C616        H627   1.083       .  S
C617        C626   1.377       .  A
C617        C618   1.380       .  A
C618        S624   1.696       .  A
C618        C619   1.405       .  A
C619        C620   1.403       .  A
C619        H628   1.083       .  S
C620        C623   1.378       .  A
S621        C622   1.724       .  A
C622        C623   1.387       .  A
C623        H629   1.083       .  S
S624        C625   1.741       .  A
C625        C626   1.403       .  A
C626        H630   1.081       .  S
C631        S637   1.697       .  A
C631        C636   1.380       .  A
C631        C632   1.406       .  A
C632        C633   1.404       .  A
C632        H643   1.083       .  S
C633        C642   1.378       .  A
C633        C634   1.387       .  A
C634        S640   1.705       .  A
C634        C635   1.404       .  A
C635        C636   1.404       .  A
C635        H644   1.083       .  S
C636        C639   1.376       .  A
S637        C638   1.743       .  A
C638        C751   1.570       .  S
C638        C639   1.403       .  A
C639        H645   1.078       .  S
S640        C641   1.724       .  A
C641        C642   1.389       .  A
C642        H646   1.083       .  S
C647        S653   1.692       .  A
C647        C652   1.380       .  A
C647        C648   1.398       .  A
C648        C649   1.398       .  A
C648        H659   1.083       .  S
C649        C658   1.368       .  A
C649        C650   1.387       .  A
C650        S656   1.708       .  A
C650        C651   1.404       .  A
C651        C652   1.405       .  A
C651        H660   1.083       .  S
C652        C655   1.372       .  A
S653        C654   1.741       .  A
C654        C655   1.404       .  A
S656        C657   1.723       .  A
C657        C658   1.382       .  A
C658        H662   1.083       .  S
C663        S669   1.708       .  A
C663        C668   1.387       .  A
C663        C664   1.406       .  A
C664        C665   1.405       .  A
C664        H675   1.083       .  S
C665        C674   1.376       .  A
C665        C666   1.380       .  A
C666        S672   1.691       .  A
C666        C667   1.400       .  A
C667        C668   1.399       .  A
C667        H676   1.083       .  S
C668        C671   1.372       .  A
S669        C670   1.726       .  A
C670        C671   1.385       .  A
C671        H677   1.083       .  S
S672        C673   1.742       .  A
C673       C1114   1.562       .  S
C673        C674   1.400       .  A
C674        H678   1.077       .  S
C679        S685   1.691       .  A
C679        C684   1.382       .  A
C679        C680   1.397       .  A
C680        C681   1.397       .  A
C680        H691   1.083       .  S
C681        C690   1.367       .  A
C681        C682   1.386       .  A
C682        S688   1.713       .  A
C682        C683   1.408       .  A
C683        C684   1.408       .  A
C683        H692   1.083       .  S
C684        C687   1.377       .  A
S685        C686   1.741       .  A
C686        C687   1.404       .  A
C687        H693   1.077       .  S
S688        C689   1.726       .  A
C689        C690   1.382       .  A
C690        H694   1.083       .  S
C695        S701   1.699       .  A
C695        C700   1.382       .  A
C695        C696   1.401       .  A
C696        C697   1.401       .  A
C696        H707   1.083       .  S
C697       C1432   1.369   1_455  A
C697       C1424   1.387       .  A
C698        S704   1.706       .  A
C698       C1423   1.387       .  A
C698       C1425   1.400       .  A
C699       C1424   1.400       .  A
C699        C700   1.402       .  A
C699        H708   1.083       .  S
C700        C703   1.368       .  A
S701        C702   1.741       .  A
C702        C703   1.401       .  A
C703        H709   1.081       .  S
S704        C705   1.722       .  A
C705        C706   1.385       .  A
C706       C1423   1.369       .  A
C706        H710   1.083       .  S
C711        S717   1.712       .  A
C712        C713   1.407       .  A
C713        C722   1.375       .  A
C713        C714   1.382       .  A
C714        S720   1.691       .  A
C714        C715   1.397       .  A
C715        C716   1.397       .  A
C715        H724   1.083       .  S
S717        C718   1.725       .  A
C718        C719   1.383       .  A
C719        H725   1.083       .  S
S720        C721   1.740       .  A
C721        C722   1.401       .  A
C722        H726   1.078       .  S
O727        C743   1.277       .  A
O727       Zn733   2.049       .  S
C728        O744   1.278       .  A
C728        O741   1.273       .  A
C728       C1033   1.474       .  S
O729        C742   1.275       .  A
O729       Cd736   2.069       .  S
O730        C748   1.273       .  A
O730       Cd739   2.060       .  S
O731        C745   1.275       .  A
O731       Cd735   2.074       .  S
O732        C743   1.274       .  A
O732       Cd735   2.069       .  S
Zn733       O744   2.047       .  S
Zn733       O746   2.027       .  S
Zn733       O738   1.954       .  S
O734        C745   1.272       .  A
O734       Cd739   2.060       .  S
Cd735       O737   2.075       .  S
Cd735       O738   1.992       .  S
Cd736       O740   2.076       .  S
Cd736       O749   2.087       .  S
Cd736       O738   2.008       .  S
O737        C747   1.276       .  A
O738       Cd739   1.994       .  S
Cd739       O741   2.062       .  S
O740        C747   1.273       .  A
C742        O746   1.276       .  A
C742       C1068   1.467       .  S
C743       C1004   1.477       .  S
C745       C1020   1.465       .  S
C747       C1052   1.471       .  S
C748        O749   1.275       .  A
C748       C1081   1.469       .  S
C750        C776   1.647       .  S
C750       C1049   1.560       .  S
C750       C1065   1.556       .  S
C750       C1084   1.556       .  S
C751        C800   1.643   1_556  S
C751       C1017   1.564   1_565  S
O752        C768   1.274   1_455  A
C753        O769   1.272       .  A
C753        O766   1.273       .  A
C753        C905   1.471       .  S
O754        C767   1.279       .  A
O755        C773   1.272       .  A
O755       Cd764   2.053       .  S
O756        C770   1.275   1_565  A
O756      Cd1123   2.087       .  S
O757        C768   1.271       .  A
O757       Cd760   2.041       .  S
Zn758      O1132   2.011       .  S
Zn758       O771   2.004       .  S
Zn758       O763   1.949       .  S
O759        C770   1.272       .  A
Cd760      O1119   2.087       .  S
Cd760       O762   2.061       .  S
Cd761       O765   2.112   1_455  S
O762        C772   1.273       .  A
O763      Cd1127   1.993       .  S
Cd764       O766   2.073       .  S
Cd764      O1126   1.993   1_545  S
O765        C772   1.280       .  A
C767        O771   1.272       .  A
C767        C985   1.473       .  S
C768        C921   1.460       .  S
O769      Zn1121   2.011   1_545  S
C770        C940   1.471       .  S
C772        C953   1.476       .  S
C773        O774   1.280       .  A
C773        C969   1.469       .  S
C775        C801   1.633       .  S
C775        C908   1.562       .  S
C775        C924   1.558       .  S
C775        C937   1.559       .  S
C776        C956   1.563       .  S
C776        C972   1.563       .  S
C776        C988   1.566       .  S
O777        C793   1.273       .  A
O777       Zn783   2.003       .  S
C778        O794   1.275       .  A
C778        O791   1.272       .  A
C778        C889   1.467       .  S
O779        C792   1.273       .  A
O779       Cd786   2.072       .  S
O780        C798   1.274       .  A
O780       Cd789   2.057       .  S
O781        C795   1.276       .  A
O781       Cd785   2.080       .  S
O782        C793   1.276       .  A
O782       Cd785   2.089       .  S
Zn783       O794   2.033       .  S
Zn783       O796   2.032       .  S
Zn783       O788   1.944       .  S
O784        C795   1.274       .  A
O784       Cd789   2.075       .  S
Cd785       O787   2.083       .  S
Cd785       O788   2.003       .  S
Cd786       O790   2.075       .  S
Cd786       O799   2.070       .  S
Cd786       O788   2.004       .  S
O787        C797   1.278       .  A
O788       Cd789   1.992       .  S
Cd789       O791   2.047       .  S
O790        C797   1.275       .  A
C792        O796   1.275       .  A
C792        C825   1.469       .  S
C793        C857   1.469       .  S
C795        C876   1.475       .  S
C797        C812   1.472       .  S
C798        O799   1.274       .  A
C798        C844   1.465       .  S
C800        C828   1.559   1_565  S
C800       C1204   1.555       .  S
C801        C860   1.563       .  S
C801        C873   1.563       .  S
C801        C892   1.562       .  S
C802        S808   1.691       .  A
C802        C807   1.381       .  A
C802        C803   1.399       .  A
C803        C804   1.398       .  A
C803        H814   1.083       .  S
C804        C813   1.369       .  A
C804        C805   1.387       .  A
C805        S811   1.711       .  A
C805        C806   1.407       .  A
C806        C807   1.407       .  A
C806        H815   1.083       .  S
C807        C810   1.377       .  A
S808        C809   1.743       .  A
C809        C810   1.402       .  A
C810        H816   1.077       .  S
S811        C812   1.726       .  A
C812        C813   1.384       .  A
C813        H817   1.083       .  S
C818        S824   1.712       .  A
C818        C823   1.387       .  A
C818        C819   1.407       .  A
C819        C820   1.407       .  A
C819        H830   1.083       .  S
C820        C829   1.377       .  A
C820        C821   1.382       .  A
C821        S827   1.692       .  A
C821        C822   1.398       .  A
C822        C823   1.398       .  A
C822        H831   1.083       .  S
C823        C826   1.369       .  A
S824        C825   1.725       .  A
C825        C826   1.382       .  A
C826        H832   1.083       .  S
S827        C828   1.741       .  A
C828        C829   1.402       .  A
C829        H833   1.080       .  S
C834        S840   1.695       .  A
C834        C839   1.380       .  A
C834        C835   1.396       .  A
C835        C836   1.398       .  A
C835        H846   1.083       .  S
C836        C845   1.364       .  A
C836        C837   1.387       .  A
C837        S843   1.709       .  A
C837        C838   1.402       .  A
C838        C839   1.404       .  A
C838        H847   1.083       .  S
C839        C842   1.367       .  A
S840        C841   1.740       .  A
C841       C1163   1.555       .  S
C841        C842   1.402       .  A
C842        H848   1.075       .  S
S843        C844   1.723       .  A
C844        C845   1.383       .  A
C845        H849   1.083       .  S
C850        S856   1.701       .  A
C850        C855   1.387       .  A
C850        C851   1.398       .  A
C851        C852   1.399       .  A
C851        H862   1.084       .  S
C852        C861   1.368       .  A
C852        C853   1.380       .  A
C853        S859   1.701       .  A
C853        C854   1.406       .  A
C854        C855   1.405       .  A
C854        H863   1.082       .  S
C855        C858   1.376       .  A
S856        C857   1.720       .  A
C857        C858   1.388       .  A
C858        H864   1.082       .  S
S859        C860   1.746       .  A
C860        C861   1.399       .  A
C861        H865   1.081       .  S
C866        S872   1.691       .  A
C866        C871   1.381       .  A
C866        C867   1.397       .  A
C867       C1231   1.397       .  A
C867        H878   1.083       .  S
C868       C1230   1.397       .  A
C868        C877   1.368       .  A
C868        C869   1.386       .  A
C869        S875   1.711       .  A
C869       C1233   1.408       .  A
C870       C1232   1.408       .  A
C870        C871   1.407       .  A
C870        H879   1.082       .  S
C871        C874   1.376       .  A
S872        C873   1.738       .  A
C873        C874   1.402       .  A
C874        H880   1.079       .  S
S875        C876   1.728       .  A
C876        C877   1.384       .  A
C877        H881   1.084       .  S
C882        S888   1.709       .  A
C883        C884   1.404       .  A
C884        C893   1.368       .  A
C884        C885   1.380       .  A
C885        S891   1.694       .  A
C885        C886   1.398       .  A
C886        C887   1.399       .  A
C886        H895   1.082       .  S
S888        C889   1.722       .  A
C889        C890   1.385       .  A
C890        H896   1.083       .  S
S891        C892   1.742       .  A
C892        C893   1.402       .  A
C893        H897   1.075       .  S
C898        S904   1.707       .  A
C898        C903   1.387       .  A
C898        C899   1.401       .  A
C899        C900   1.403       .  A
C899        H910   1.083       .  S
C900        C909   1.369       .  A
C900        C901   1.380       .  A
C901        S907   1.697       .  A
C901        C902   1.401       .  A
C902        C903   1.402       .  A
C902        H911   1.083       .  S
C903        C906   1.370       .  A
S904        C905   1.722       .  A
C905        C906   1.387       .  A
C906        H912   1.083       .  S
S907        C908   1.741       .  A
C908        C909   1.400       .  A
C909        H913   1.075       .  S
C914        S920   1.710       .  A
C914        C919   1.387       .  A
C914        C915   1.401       .  A
C915        C916   1.404       .  A
C915        H926   1.083       .  S
C916        C925   1.368       .  A
C916        C917   1.381       .  A
C917        S923   1.693       .  A
C917        C918   1.396       .  A
C918        C919   1.397       .  A
C918        H927   1.083       .  S
C919        C922   1.362       .  A
S920        C921   1.721       .  A
C921        C922   1.382       .  A
C922        H928   1.083       .  S
S923        C924   1.740       .  A
C924        C925   1.401       .  A
C925        H929   1.077       .  S
C930        S936   1.690       .  A
C930        C935   1.381       .  A
C930        C931   1.395       .  A
C931        C932   1.396       .  A
C931        H942   1.083       .  S
C932        C941   1.363       .  A
C932        C933   1.386       .  A
C933        S939   1.714       .  A
C933        C934   1.407       .  A
C934        C935   1.407       .  A
C934        H943   1.083       .  S
C935        C938   1.374       .  A
S936        C937   1.739       .  A
C937        C938   1.402       .  A
C938        H944   1.081       .  S
S939        C940   1.726       .  A
C940        C941   1.383       .  A
C941        H945   1.084       .  S
C946        S952   1.704       .  A
C946        C951   1.387       .  A
C946        C947   1.401       .  A
C947        C948   1.402       .  A
C947        H958   1.083       .  S
C948        C957   1.371       .  A
C948        C949   1.380       .  A
C949        S955   1.705       .  A
C949        C950   1.407       .  A
C950        C951   1.407       .  A
C950        H959   1.083       .  S
C951        C954   1.379       .  A
S952        C953   1.723       .  A
C953        C954   1.389       .  A
C954        H960   1.083       .  S
S955        C956   1.741       .  A
C956        C957   1.402       .  A
C957        H961   1.081       .  S
C962        S968   1.707       .  A
C962        C967   1.387       .  A
C962        C963   1.405       .  A
C963        C964   1.405       .  A
C963        H974   1.083       .  S
C964        C973   1.374       .  A
C964        C965   1.380       .  A
C965        S971   1.693       .  A
C965        C966   1.400       .  A
C966        C967   1.399       .  A
C966        H975   1.083       .  S
C967        C970   1.371       .  A
S968        C969   1.725       .  A
C969        C970   1.383       .  A
C970        H976   1.083       .  S
S971        C972   1.737       .  A
C972        C973   1.403       .  A
C973        H977   1.082       .  S
C978        S984   1.705       .  A
C978        C983   1.387       .  A
C978        C979   1.405       .  A
C979        C980   1.404       .  A
C979        H990   1.083       .  S
C980        C989   1.377       .  A
C980        C981   1.380       .  A
C981        S987   1.695       .  A
C981        C982   1.405       .  A
C982        C983   1.403       .  A
C982        H991   1.083       .  S
C983        C986   1.377       .  A
S984        C985   1.724       .  A
C985        C986   1.387       .  A
C986        H992   1.083       .  S
S987        C988   1.741       .  A
C988        C989   1.402       .  A
C989        H993   1.081       .  S
C994       S1000   1.697       .  A
C994        C999   1.380       .  A
C994        C995   1.406       .  A
C995        C996   1.404       .  A
C995       H1006   1.083       .  S
C996       C1005   1.378       .  A
C996        C997   1.387       .  A
C997       S1003   1.705       .  A
C997        C998   1.404       .  A
C998        C999   1.403       .  A
C998       H1007   1.083       .  S
C999       C1002   1.376       .  A
S1000      C1001   1.743       .  A
C1001      C1002   1.403       .  A
C1002      H1008   1.078       .  S
S1003      C1004   1.723       .  A
C1004      C1005   1.389       .  A
C1005      H1009   1.083       .  S
C1010      S1016   1.692       .  A
C1010      C1015   1.380       .  A
C1010      C1011   1.398       .  A
C1011      C1012   1.398       .  A
C1011      H1022   1.083       .  S
C1012      C1021   1.368       .  A
C1012      C1013   1.387       .  A
C1013      S1019   1.708       .  A
C1013      C1014   1.404       .  A
C1014      C1015   1.405       .  A
C1014      H1023   1.083   1_545  S
C1015      C1018   1.373       .  A
S1016      C1017   1.741       .  A
C1017      C1018   1.404       .  A
C1018      H1387   1.081   1_545  S
S1019      C1020   1.724       .  A
C1020      C1021   1.382       .  A
C1021      H1025   1.083       .  S
H1024      C1381   1.081       .  S
C1026      S1032   1.708       .  A
C1026      C1031   1.387       .  A
C1026      C1027   1.406       .  A
C1027      C1028   1.405       .  A
C1027      H1038   1.083       .  S
C1028      C1037   1.376       .  A
C1028      C1029   1.380       .  A
C1029      S1035   1.691   1_655  A
C1029      C1030   1.400       .  A
C1030      C1031   1.399       .  A
C1030      H1039   1.083       .  S
C1031      C1034   1.372       .  A
S1032      C1033   1.726       .  A
C1033      C1034   1.385       .  A
C1034      H1040   1.083       .  S
S1035      C1036   1.742   1_455  A
C1036      C1037   1.401       .  A
C1037      H1041   1.077   1_545  S
C1042      S1048   1.691       .  A
C1042      C1047   1.382       .  A
C1042      C1043   1.397       .  A
C1043      C1044   1.397       .  A
C1043      H1054   1.083       .  S
C1044      C1053   1.367       .  A
C1044      C1045   1.386       .  A
C1045      S1051   1.713       .  A
C1045      C1046   1.408       .  A
C1046      C1047   1.408       .  A
C1046      H1055   1.083       .  S
C1047      C1050   1.377       .  A
S1048      C1049   1.741       .  A
C1049      C1050   1.404       .  A
C1050      H1056   1.077       .  S
S1051      C1052   1.726       .  A
C1052      C1053   1.382       .  A
C1053      H1057   1.083       .  S
C1058      S1064   1.699       .  A
C1058      C1063   1.382       .  A
C1058      C1059   1.401       .  A
C1059      C1060   1.401       .  A
C1059      H1070   1.083       .  S
C1061      S1067   1.706   1_455  A
C1062      C1063   1.402       .  A
C1062      H1071   1.083       .  S
C1063      C1066   1.368       .  A
S1064      C1065   1.741       .  A
C1065      C1066   1.401       .  A
C1066      H1072   1.081       .  S
S1067      C1068   1.722       .  A
C1068      C1069   1.385       .  A
C1069      H1073   1.083       .  S
C1074      S1080   1.712   1_565  A
C1074      C1442   1.387       .  A
C1074      C1438   1.406       .  A
C1075      C1437   1.406       .  A
C1075      C1076   1.407       .  A
C1075      H1449   1.083       .  S
C1076      C1085   1.375       .  A
C1076      C1077   1.382       .  A
C1077      S1083   1.691       .  A
C1077      C1078   1.397       .  A
C1078      C1079   1.397       .  A
C1078      H1087   1.083       .  S
C1079      C1437   1.387       .  A
C1079      C1445   1.367       .  A
S1080      C1081   1.725       .  A
C1081      C1082   1.383       .  A
C1082      C1442   1.367   1_545  A
C1082      H1088   1.083       .  S
S1083      C1084   1.740       .  A
C1084      C1085   1.401       .  A
C1085      H1089   1.078       .  S
H1086      C1438   1.083       .  S
O1090      C1106   1.277       .  A
O1090     Zn1096   2.049       .  S
C1091      O1107   1.278       .  A
C1091      O1104   1.273       .  A
C1091      C1396   1.474       .  S
O1092      C1105   1.275       .  A
O1092     Cd1099   2.069       .  S
O1093      C1111   1.273       .  A
O1093     Cd1102   2.060       .  S
O1094      C1108   1.275       .  A
O1094     Cd1098   2.074       .  S
O1095      C1106   1.274       .  A
O1095     Cd1098   2.069       .  S
Zn1096     O1107   2.047       .  S
Zn1096     O1109   2.027       .  S
Zn1096     O1101   1.954       .  S
O1097      C1108   1.272       .  A
O1097     Cd1102   2.060       .  S
Cd1098     O1100   2.075       .  S
Cd1098     O1101   1.992       .  S
Cd1099     O1103   2.076       .  S
Cd1099     O1112   2.087       .  S
Cd1099     O1101   2.008       .  S
O1100      C1110   1.276       .  A
O1101     Cd1102   1.994       .  S
Cd1102     O1104   2.062       .  S
O1103      C1110   1.273       .  A
C1105      O1109   1.276       .  A
C1105      C1431   1.467       .  S
C1106      C1367   1.477       .  S
C1108      C1383   1.465       .  S
C1110      C1415   1.471       .  S
C1111      O1112   1.275       .  A
C1111      C1444   1.469       .  S
C1113      C1139   1.647       .  S
C1113      C1412   1.560       .  S
C1113      C1428   1.556       .  S
C1113      C1447   1.556       .  S
C1114      C1163   1.643   1_556  S
C1114      C1380   1.564       .  S
O1115      C1131   1.274   1_455  A
C1116      O1132   1.272       .  A
C1116      O1129   1.273       .  A
C1116      C1268   1.471       .  S
O1117      C1130   1.279       .  A
O1118      C1136   1.272       .  A
O1118     Cd1127   2.053       .  S
O1119      C1133   1.275       .  A
O1120      C1131   1.271       .  A
O1120     Cd1123   2.041       .  S
Zn1121     O1134   2.004       .  S
Zn1121     O1126   1.949       .  S
O1122      C1133   1.272       .  A
Cd1123     O1125   2.061       .  S
Cd1124     O1128   2.112   1_455  S
O1125      C1135   1.273       .  A
Cd1127     O1129   2.072       .  S
O1128      C1135   1.280       .  A
C1130      O1134   1.273       .  A
C1130      C1348   1.473       .  S
C1131      C1284   1.460       .  S
C1133      C1303   1.471       .  S
C1135      C1316   1.476       .  S
C1136      O1137   1.280       .  A
C1136      C1332   1.469       .  S
C1138      C1164   1.633       .  S
C1138      C1271   1.562       .  S
C1138      C1287   1.558       .  S
C1138      C1300   1.559       .  S
C1139      C1319   1.563       .  S
C1139      C1335   1.563       .  S
C1139      C1351   1.566       .  S
O1140      C1156   1.273       .  A
O1140     Zn1146   2.004       .  S
C1141      O1157   1.275       .  A
C1141      O1154   1.272       .  A
C1141      C1252   1.467       .  S
O1142      C1155   1.273       .  A
O1142     Cd1149   2.072       .  S
O1143      C1161   1.274       .  A
O1143     Cd1152   2.057       .  S
O1144      C1158   1.276       .  A
O1144     Cd1148   2.080       .  S
O1145      C1156   1.276       .  A
O1145     Cd1148   2.089       .  S
Zn1146     O1157   2.033       .  S
Zn1146     O1159   2.031       .  S
Zn1146     O1151   1.944       .  S
O1147      C1158   1.274       .  A
O1147     Cd1152   2.075       .  S
Cd1148     O1150   2.083       .  S
Cd1148     O1151   2.003       .  S
Cd1149     O1153   2.075       .  S
Cd1149     O1162   2.070       .  S
Cd1149     O1151   2.004       .  S
O1150      C1160   1.278       .  A
O1151     Cd1152   1.992       .  S
Cd1152     O1154   2.047       .  S
O1153      C1160   1.275       .  A
C1155      O1159   1.275       .  A
C1155      C1188   1.469       .  S
C1156      C1220   1.469       .  S
C1158      C1239   1.475       .  S
C1160      C1175   1.472       .  S
C1161      O1162   1.273       .  A
C1161      C1207   1.465       .  S
C1163      C1191   1.559       .  S
C1164      C1223   1.563       .  S
C1164      C1236   1.563       .  S
C1164      C1255   1.562       .  S
C1165      S1171   1.691   1_565  A
C1165      C1170   1.381       .  A
C1165      C1166   1.399       .  A
C1166      C1167   1.398       .  A
C1166      H1177   1.083       .  S
C1167      C1176   1.369       .  A
C1167      C1168   1.387       .  A
C1168      S1174   1.711       .  A
C1168      C1169   1.407       .  A
C1169      C1170   1.407       .  A
C1169      H1178   1.083       .  S
C1170      C1173   1.377       .  A
S1171      C1172   1.743   1_545  A
C1172      C1173   1.402       .  A
C1173      H1179   1.077       .  S
S1174      C1175   1.726       .  A
C1175      C1176   1.384       .  A
C1176      H1180   1.083       .  S
C1181      S1187   1.712       .  A
C1181      C1186   1.387       .  A
C1181      C1182   1.407       .  A
C1182      C1183   1.407       .  A
C1182      H1193   1.083       .  S
C1183      C1192   1.377       .  A
C1183      C1184   1.382       .  A
C1184      S1190   1.692       .  A
C1184      C1185   1.398       .  A
C1185      C1186   1.397       .  A
C1185      H1194   1.083       .  S
C1186      C1189   1.369       .  A
S1187      C1188   1.725       .  A
C1188      C1189   1.382       .  A
C1189      H1195   1.083       .  S
S1190      C1191   1.741       .  A
C1191      C1192   1.402       .  A
C1192      H1196   1.080       .  S
C1197      S1203   1.695       .  A
C1197      C1202   1.380       .  A
C1197      C1198   1.396       .  A
C1198      C1199   1.398       .  A
C1198      H1209   1.083       .  S
C1199      C1208   1.363       .  A
C1199      C1200   1.387       .  A
C1200      S1206   1.709       .  A
C1200      C1201   1.402       .  A
C1201      C1202   1.404       .  A
C1201      H1210   1.083       .  S
C1202      C1205   1.367       .  A
S1203      C1204   1.740       .  A
C1204      C1205   1.402       .  A
C1205      H1211   1.075       .  S
S1206      C1207   1.723       .  A
C1207      C1208   1.383       .  A
C1208      H1212   1.083       .  S
C1213      S1219   1.701       .  A
C1213      C1218   1.387       .  A
C1213      C1214   1.398       .  A
C1214      C1215   1.399       .  A
C1214      H1225   1.085       .  S
C1215      C1224   1.368       .  A
C1215      C1216   1.381       .  A
C1216      S1222   1.701       .  A
C1216      C1217   1.406       .  A
C1217      C1218   1.405       .  A
C1217      H1226   1.082       .  S
C1218      C1221   1.376       .  A
S1219      C1220   1.720       .  A
C1220      C1221   1.388       .  A
C1221      H1227   1.082       .  S
S1222      C1223   1.746       .  A
C1223      C1224   1.399       .  A
C1224      H1228   1.081       .  S
C1229      S1235   1.691       .  A
C1229      C1234   1.381       .  A
C1229      C1230   1.397       .  A
C1230      H1241   1.083       .  S
C1231      C1240   1.368   1_545  A
C1231      C1232   1.386       .  A
C1232      S1238   1.712   1_545  A
C1233      C1234   1.407       .  A
C1233      H1242   1.082       .  S
C1234      C1237   1.376       .  A
S1235      C1236   1.738       .  A
C1236      C1237   1.402       .  A
C1237      H1243   1.079       .  S
S1238      C1239   1.728       .  A
C1239      C1240   1.384       .  A
C1240      H1244   1.084       .  S
C1245      S1251   1.709       .  A
C1246      C1247   1.404       .  A
C1247      C1256   1.368       .  A
C1247      C1248   1.380       .  A
C1248      S1254   1.694       .  A
C1248      C1249   1.398       .  A
C1249      C1250   1.399       .  A
C1249      H1258   1.082       .  S
S1251      C1252   1.722       .  A
C1252      C1253   1.385       .  A
C1253      H1259   1.083       .  S
S1254      C1255   1.742       .  A
C1255      C1256   1.402       .  A
C1256      H1260   1.075       .  S
C1261      S1267   1.707       .  A
C1261      C1266   1.387       .  A
C1261      C1262   1.401       .  A
C1262      C1263   1.403       .  A
C1262      H1273   1.083       .  S
C1263      C1272   1.369       .  A
C1263      C1264   1.380       .  A
C1264      S1270   1.697       .  A
C1264      C1265   1.401       .  A
C1265      C1266   1.402       .  A
C1265      H1274   1.083       .  S
C1266      C1269   1.369       .  A
S1267      C1268   1.722       .  A
C1268      C1269   1.387       .  A
C1269      H1275   1.083       .  S
S1270      C1271   1.741       .  A
C1271      C1272   1.400       .  A
C1272      H1276   1.075       .  S
C1277      S1283   1.710       .  A
C1277      C1282   1.387       .  A
C1277      C1278   1.401       .  A
C1278      C1279   1.404       .  A
C1278      H1289   1.083       .  S
C1279      C1288   1.368       .  A
C1279      C1280   1.381       .  A
C1280      S1286   1.693       .  A
C1280      C1281   1.396       .  A
C1281      C1282   1.397       .  A
C1281      H1290   1.083       .  S
C1282      C1285   1.362       .  A
S1283      C1284   1.721       .  A
C1284      C1285   1.382       .  A
C1285      H1291   1.083       .  S
S1286      C1287   1.740       .  A
C1287      C1288   1.401       .  A
C1288      H1292   1.077       .  S
C1293      S1299   1.690       .  A
C1293      C1298   1.381       .  A
C1293      C1294   1.395       .  A
C1294      C1295   1.396       .  A
C1294      H1305   1.083       .  S
C1295      C1304   1.363       .  A
C1295      C1296   1.386       .  A
C1296      S1302   1.714       .  A
C1296      C1297   1.407       .  A
C1297      C1298   1.407       .  A
C1297      H1306   1.083       .  S
C1298      C1301   1.374       .  A
S1299      C1300   1.739       .  A
C1300      C1301   1.402       .  A
C1301      H1307   1.081       .  S
S1302      C1303   1.726       .  A
C1303      C1304   1.383       .  A
C1304      H1308   1.084       .  S
C1309      S1315   1.704       .  A
C1309      C1314   1.387       .  A
C1309      C1310   1.401       .  A
C1310      C1311   1.402       .  A
C1310      H1321   1.083       .  S
C1311      C1320   1.371       .  A
C1311      C1312   1.380       .  A
C1312      S1318   1.705       .  A
C1312      C1313   1.407       .  A
C1313      C1314   1.407       .  A
C1313      H1322   1.083       .  S
C1314      C1317   1.379       .  A
S1315      C1316   1.723       .  A
C1316      C1317   1.389       .  A
C1317      H1323   1.083       .  S
S1318      C1319   1.741       .  A
C1319      C1320   1.402       .  A
C1320      H1324   1.081       .  S
C1325      S1331   1.707       .  A
C1325      C1330   1.387       .  A
C1325      C1326   1.405       .  A
C1326      C1327   1.405       .  A
C1326      H1337   1.083       .  S
C1327      C1336   1.374       .  A
C1327      C1328   1.380       .  A
C1328      S1334   1.693       .  A
C1328      C1329   1.400       .  A
C1329      C1330   1.399       .  A
C1329      H1338   1.083       .  S
C1330      C1333   1.371       .  A
S1331      C1332   1.725       .  A
C1332      C1333   1.383       .  A
C1333      H1339   1.083       .  S
S1334      C1335   1.737       .  A
C1335      C1336   1.403       .  A
C1336      H1340   1.082       .  S
C1341      S1347   1.705       .  A
C1341      C1346   1.387       .  A
C1341      C1342   1.405       .  A
C1342      C1343   1.404       .  A
C1342      H1353   1.083       .  S
C1343      C1352   1.377       .  A
C1343      C1344   1.380       .  A
C1344      S1350   1.696       .  A
C1344      C1345   1.405       .  A
C1345      C1346   1.403       .  A
C1345      H1354   1.083       .  S
C1346      C1349   1.378       .  A
S1347      C1348   1.724       .  A
C1348      C1349   1.387       .  A
C1349      H1355   1.083       .  S
S1350      C1351   1.741       .  A
C1351      C1352   1.403       .  A
C1352      H1356   1.081       .  S
C1357      S1363   1.697       .  A
C1357      C1362   1.380       .  A
C1357      C1358   1.406       .  A
C1358      C1359   1.404       .  A
C1358      H1369   1.083       .  S
C1359      C1368   1.378       .  A
C1359      C1360   1.387       .  A
C1360      S1366   1.705       .  A
C1360      C1361   1.404       .  A
C1361      C1362   1.404       .  A
C1361      H1370   1.083       .  S
C1362      C1365   1.376       .  A
S1363      C1364   1.743       .  A
C1364      C1365   1.403       .  A
C1365      H1371   1.078       .  S
S1366      C1367   1.724       .  A
C1367      C1368   1.389       .  A
C1368      H1372   1.083       .  S
C1373      S1379   1.692       .  A
C1373      C1378   1.380       .  A
C1373      C1374   1.398       .  A
C1374      C1375   1.398       .  A
C1374      H1385   1.083       .  S
C1375      C1384   1.368       .  A
C1375      C1376   1.387       .  A
C1376      S1382   1.708       .  A
C1376      C1377   1.404       .  A
C1377      C1378   1.405       .  A
C1377      H1386   1.083       .  S
C1378      C1381   1.372       .  A
S1379      C1380   1.741       .  A
C1380      C1381   1.404       .  A
S1382      C1383   1.723       .  A
C1383      C1384   1.382       .  A
C1384      H1388   1.083       .  S
C1389      S1395   1.708       .  A
C1389      C1394   1.387       .  A
C1389      C1390   1.406       .  A
C1390      C1391   1.405       .  A
C1390      H1401   1.083       .  S
C1391      C1400   1.376       .  A
C1391      C1392   1.380       .  A
C1392      S1398   1.691   1_655  A
C1392      C1393   1.400       .  A
C1393      C1394   1.399       .  A
C1393      H1402   1.083       .  S
C1394      C1397   1.372       .  A
S1395      C1396   1.726       .  A
C1396      C1397   1.385       .  A
C1397      H1403   1.083       .  S
S1398      C1399   1.742   1_455  A
C1399      C1400   1.400       .  A
C1400      H1404   1.077       .  S
C1405      S1411   1.691       .  A
C1405      C1410   1.382       .  A
C1405      C1406   1.397       .  A
C1406      C1407   1.397       .  A
C1406      H1417   1.083       .  S
C1407      C1416   1.367       .  A
C1407      C1408   1.386       .  A
C1408      S1414   1.713       .  A
C1408      C1409   1.408       .  A
C1409      C1410   1.408       .  A
C1409      H1418   1.083       .  S
C1410      C1413   1.377       .  A
S1411      C1412   1.741       .  A
C1412      C1413   1.404       .  A
C1413      H1419   1.077       .  S
S1414      C1415   1.726       .  A
C1415      C1416   1.382       .  A
C1416      H1420   1.083       .  S
C1421      S1427   1.699       .  A
C1421      C1426   1.382       .  A
C1421      C1422   1.401       .  A
C1422      C1423   1.401       .  A
C1422      H1433   1.083       .  S
C1424      S1430   1.706   1_455  A
C1425      C1426   1.402       .  A
C1425      H1434   1.083       .  S
C1426      C1429   1.368       .  A
S1427      C1428   1.741       .  A
C1428      C1429   1.401       .  A
C1429      H1435   1.081       .  S
S1430      C1431   1.722       .  A
C1431      C1432   1.385       .  A
C1432      H1436   1.083       .  S
C1437      S1443   1.712       .  A
C1438      C1439   1.407       .  A
C1439      C1448   1.375       .  A
C1439      C1440   1.382       .  A
C1440      S1446   1.691       .  A
C1440      C1441   1.397       .  A
C1441      C1442   1.397       .  A
C1441      H1450   1.083       .  S
S1443      C1444   1.725       .  A
C1444      C1445   1.383       .  A
C1445      H1451   1.083       .  S
S1446      C1447   1.740       .  A
C1447      C1448   1.401       .  A
C1448      H1452   1.078       .  S
