geometry optimzed in LAMMPS
_audit_creation_date              2020-11-30 
_audit_creation_method            'lammps2cif' 
_symmetry_space_group_name_H-M    'P1' 
_symmetry_Int_Tables_number       1 
_symmetry_cell_setting            triclinic 
loop_ 
_symmetry_equiv_pos_as_xyz 
  x,y,z 
_cell_length_a                    39.56911064 
_cell_length_b                    39.869132107129914 
_cell_length_c                    39.65228402557358 
_cell_angle_alpha                 90.18556843700888 
_cell_angle_beta                  89.74887585597314 
_cell_angle_gamma                 90.14490607403583 
loop_ 
_atom_site_label 
_atom_site_type_symbol 
_atom_site_fract_x 
_atom_site_fract_y 
_atom_site_fract_z 
_atom_site_charge 
N1          N  0.99756210  0.25081439  0.30006515    -0.36200
N2          N  0.00444170  0.30254050  0.24835704    -0.56800
N3          N  0.01336099  0.25100790  0.19838549    -0.36200
N4          N  0.00955861  0.19918729  0.24991126    -0.56800
C5          C  0.00270360  0.27872801  0.31897129     0.27400
C6          C  0.00358940  0.22391884  0.31994228     0.27400
C7          C  0.02248397  0.27880261  0.18090814     0.27400
C8          C  0.02611272  0.22413839  0.18178275     0.27400
C9          C  0.99167001  0.32043246  0.27430865     0.36000
C10         C  0.99833797  0.32041978  0.22020141     0.36000
C11         C  0.99941240  0.17972394  0.27596292     0.36000
C12         C  0.00783503  0.17987880  0.22187216     0.36000
C13         C  0.01196319  0.26943974  0.35129802    -0.21500
C14         C  0.01208836  0.23491842  0.35204499    -0.21500
C15         C  0.04154559  0.26947245  0.15302107    -0.21500
C16         C  0.04380924  0.23498100  0.15355428    -0.21500
C17         C  0.97682139  0.34960089  0.26266174    -0.22600
C18         C  0.98077331  0.34944340  0.22819228    -0.22600
C19         C  0.99189379  0.14772275  0.26453756    -0.22600
C20         C  0.99612511  0.14812766  0.23020059    -0.22600
C21         C  0.99657335  0.31213542  0.30841968    -0.17900
C22         C  0.99978918  0.18985801  0.31013613    -0.17900
C23         C  0.01876398  0.19013344  0.18939597    -0.17900
C24         C  0.01137611  0.31189705  0.18814093    -0.17900
H25         H  0.01746247  0.28579051  0.37241636     0.15000
H26         H  0.01765443  0.21980870  0.37391883     0.15000
H27         H  0.05213198  0.28575812  0.13389426     0.15000
H28         H  0.05635573  0.21954029  0.13483660     0.15000
H29         H  0.96499400  0.36917051  0.27752804     0.13300
H30         H  0.97247436  0.36885881  0.21113601     0.13300
H31         H  0.98447238  0.12614085  0.27926184     0.13300
H32         H  0.99158764  0.12708851  0.21354935     0.13300
H33         H  0.98700805  0.25010334  0.27609161     0.26500
H34         H  0.99553640  0.25004967  0.21773477     0.26500
O35         O  0.50340462  0.09878696  0.05325440    -0.79700
O36         O  0.49978430  0.40430307  0.05205076    -0.81300
O37         O  0.44705253  0.00121756  0.09853225    -0.78300
O38         O  0.05766705  0.99989330  0.09320766    -0.76700
O39         O  0.09679349  0.99672660  0.05060465    -0.78500
O40         O  0.40492224  0.50085128  0.05873591    -0.79400
O41         O  0.50408844  0.44462381  0.09295494    -0.80800
O42         O  0.50503175  0.05830568  0.09393517    -0.81000
Eu43       Eu  0.50119389  0.00147149  0.06767669     2.39200
O44         O  0.03253322  0.46696090  0.03062788    -0.88600
O45         O  0.46600567  0.03615966  0.03519730    -0.92200
C46         C  0.50539613  0.08936134  0.08416420     1.02500
C47         C  0.50296481  0.41356263  0.08302824     1.02400
C48         C  0.41564520  0.99962037  0.08992384     1.02300
C49         C  0.08829671  0.99747573  0.08215448     1.00200
H50         H  0.45113812  0.45419529  0.04905170     0.29900
O51         O  0.46473580  0.46807194  0.03427642    -1.00900
H52         H  0.05009650  0.04857497  0.04516657     0.29900
O53         O  0.03478342  0.03493019  0.03175231    -1.03500
O54         O  0.49057651  0.40537734  0.44242986    -0.80700
O55         O  0.50227655  0.09763062  0.44495931    -0.80200
O56         O  0.39859375  0.44943005  0.50060924    -0.78700
O57         O  0.09342633  0.44362147  0.49362262    -0.82000
O58         O  0.09680218  0.05324128  0.49420145    -0.79900
O59         O  0.40240811  0.05819464  0.50778711    -0.78500
O60         O  0.43923741  0.50565206  0.40377118    -0.80000
O61         O  0.04879214  0.50080784  0.39861949    -0.82000
O62         O  0.40003533  0.50502991  0.44639391    -0.78700
O63         O  0.09087633  0.49880791  0.43784916    -0.81400
O64         O  0.43856301  0.40798969  0.50190049    -0.77100
O65         O  0.44437470  0.09778765  0.50423583    -0.77200
O66         O  0.05673954  0.09449664  0.49789414    -0.76800
O67         O  0.05141435  0.40412388  0.49688267    -0.80300
O68         O  0.49183932  0.44640068  0.40210917    -0.79700
O69         O  0.49889897  0.05717457  0.40394662    -0.78000
Eu70       Eu  0.49566010  0.43308123  0.49777167     2.39800
Eu71       Eu  0.50002850  0.06905825  0.49968390     2.39600
Eu72       Eu  0.42928594  0.50303808  0.50121054     2.38400
Eu73       Eu  0.06670200  0.49953626  0.49498271     2.39900
Eu74       Eu  0.49504212  0.50189579  0.42976008     2.39800
O75         O  0.03191251  0.03420766  0.46444716    -0.92500
O76         O  0.46109966  0.46824368  0.46511828    -0.91400
C77         C  0.49023975  0.41540269  0.41149860     1.02700
C78         C  0.50151600  0.08796797  0.41392180     1.01400
C79         C  0.40762868  0.41841729  0.50191667     1.00800
C80         C  0.08287449  0.41295154  0.49523125     1.02800
C81         C  0.08764989  0.08431540  0.49555684     1.01700
C82         C  0.41302701  0.08880551  0.50734834     1.00600
C83         C  0.40859669  0.50611875  0.41489554     1.00700
C84         C  0.08013737  0.49944495  0.40713291     1.03300
H85         H  0.44898354  0.05121851  0.45363336     0.30600
O86         O  0.46298137  0.03654466  0.46678079    -1.04600
H87         H  0.04302027  0.45198367  0.44736137     0.32700
O88         O  0.03004867  0.46627442  0.46204486    -1.07200
N89         N  0.24641433  0.99125974  0.30059125    -0.36200
N90         N  0.19768962  0.98661311  0.24615409    -0.56800
N91         N  0.25152336  0.98583223  0.19771669    -0.36200
N92         N  0.30006833  0.99255130  0.25246976    -0.56800
C93         C  0.21771499  0.00182501  0.31558956     0.27400
C94         C  0.27240654  0.00285521  0.31927812     0.27400
C95         C  0.22476120  0.99182759  0.17759239     0.27400
C96         C  0.27924008  0.99713220  0.18137243     0.27400
C97         C  0.17754971  0.98056053  0.27309098     0.36000
C98         C  0.18046978  0.97638679  0.21855009     0.36000
C99         C  0.31801943  0.98652837  0.28066135     0.36000
C100        C  0.32089529  0.98621689  0.22626635     0.36000
C101        C  0.22554441  0.02123003  0.34365447    -0.21500
C102        C  0.26025376  0.02168647  0.34610984    -0.21500
C103        C  0.23556425  0.00737248  0.14820413    -0.21500
C104        C  0.27011418  0.01047293  0.15047747    -0.21500
C105        C  0.14746194  0.96609120  0.26258782    -0.22600
C106        C  0.14924271  0.96363611  0.22799620    -0.22600
C107        C  0.35032680  0.97586254  0.27230384    -0.22600
C108        C  0.35223208  0.97595057  0.23768987    -0.22600
C109        C  0.18505187  0.99099134  0.30641789    -0.17900
C110        C  0.30650845  0.99475401  0.31337078    -0.17900
C111        C  0.31267068  0.99278077  0.19247967    -0.17900
C112        C  0.19118943  0.98231661  0.18494141    -0.17900
H113        H  0.20804582  0.03290702  0.36113161     0.15000
H114        H  0.27482944  0.03396574  0.36563493     0.15000
H115        H  0.22024589  0.01537678  0.12718387     0.15000
H116        H  0.28667633  0.02102467  0.13145185     0.15000
H117        H  0.12616477  0.95868729  0.27809457     0.13300
H118        H  0.12956969  0.95419145  0.21160558     0.13300
H119        H  0.37068576  0.96969436  0.28931101     0.13300
H120        H  0.37428416  0.96982962  0.22266462     0.13300
H121        H  0.24803621  0.97339090  0.28139942     0.26500
H122        H  0.25138894  0.97139714  0.21956959     0.26500
N123        N  0.24683201  0.30202018  0.50792670    -0.36200
N124        N  0.19660354  0.24959336  0.50157563    -0.56800
N125        N  0.24978609  0.19999914  0.50427280    -0.36200
N126        N  0.29992081  0.25245245  0.51372590    -0.56800
C127        C  0.21809454  0.31958393  0.51331340     0.27400
C128        C  0.27284922  0.32133618  0.51851052     0.27400
C129        C  0.22208707  0.18049669  0.50832827     0.27400
C130        C  0.27669550  0.18184387  0.51428513     0.27400
C131        C  0.17773206  0.27640275  0.49323287     0.36000
C132        C  0.17953041  0.22228404  0.49086694     0.36000
C133        C  0.31912011  0.28025796  0.50983227     0.36000
C134        C  0.32059546  0.22601601  0.50843254     0.36000
C135        C  0.22595615  0.35043941  0.52756766    -0.21500
C136        C  0.26058303  0.35161555  0.53066047    -0.21500
C137        C  0.23147967  0.14957816  0.52111635    -0.21500
C138        C  0.26603647  0.15030914  0.52454971    -0.21500
C139        C  0.14857630  0.26616250  0.47685148    -0.22600
C140        C  0.14970632  0.23171074  0.47538099    -0.22600
C141        C  0.35217525  0.27142344  0.50231403    -0.22600
C142        C  0.35320572  0.23702556  0.50191125    -0.22600
C143        C  0.18544421  0.30960447  0.50284193    -0.17900
C144        C  0.30745278  0.31338912  0.51471690    -0.17900
C145        C  0.31073149  0.19210615  0.51137463    -0.17900
C146        C  0.18905432  0.18909324  0.49827412    -0.17900
H147        H  0.20862209  0.37034504  0.53432091     0.15000
H148        H  0.27514087  0.37253789  0.54031875     0.15000
H149        H  0.21525120  0.12839358  0.52666800     0.15000
H150        H  0.28151187  0.12975274  0.53318657     0.15000
H151        H  0.12835373  0.28182489  0.46759389     0.13300
H152        H  0.13049657  0.21542420  0.46486573     0.13300
H153        H  0.37345999  0.28797014  0.49797166     0.13300
H154        H  0.37543339  0.22188886  0.49734918     0.13300
H155        H  0.24899698  0.28017823  0.49371707     0.26500
H156        H  0.25081950  0.22262984  0.49135824     0.26500
C157        C  0.33012424  0.36404018  0.48625896    -0.11900
C158        C  0.33220238  0.34146486  0.51315966     0.05100
C159        C  0.35858096  0.34618729  0.04101591    -0.07200
C160        C  0.38279537  0.37134626  0.03566723    -0.07900
C161        C  0.38081893  0.39280490  0.50533558    -0.02500
C162        C  0.35374008  0.38994378  0.48253713     0.04300
N163        N  0.34895399  0.41365824  0.45621961     0.66900
H164        H  0.30994876  0.36153145  0.46800430     0.15800
H165        H  0.40188559  0.37581454  0.05456167     0.15500
N166        N  0.35935046  0.32744944  0.07163761     0.74600
O167        O  0.35983533  0.40690884  0.42704819    -0.38900
O168        O  0.32552028  0.43481967  0.45952813    -0.38800
O169        O  0.38085977  0.30441356  0.07501802    -0.39500
O170        O  0.34494577  0.33926384  0.09750691    -0.39600
C171        C  0.37325002  0.12909208  0.98116010    -0.11900
C172        C  0.38712960  0.11546638  0.50918804     0.05100
C173        C  0.37254355  0.12585661  0.54014146    -0.07200
C174        C  0.34866172  0.15176269  0.54054328    -0.07900
C175        C  0.33724494  0.16589217  0.51044283    -0.02500
C176        C  0.34761044  0.15329630  0.98248499     0.04300
N177        N  0.33268758  0.16501080  0.95193808     0.66900
H178        H  0.38257647  0.12062454  0.95684939     0.15800
H179        H  0.33781696  0.15988536  0.56434436     0.15500
N180        N  0.37969260  0.10894176  0.57102259     0.74600
O181        O  0.34261521  0.19230527  0.93924373    -0.38900
O182        O  0.30859472  0.15402148  0.43822801    -0.38800
O183        O  0.39682138  0.12423323  0.09533893    -0.39500
O184        O  0.36248661  0.08328881  0.57840349    -0.39600
C185        C  0.10589810  0.36055399  0.02166442    -0.11900
C186        C  0.10870909  0.38593557  0.49618431     0.05100
C187        C  0.13746448  0.38624609  0.47489145    -0.07200
C188        C  0.16161190  0.36086094  0.47707953    -0.07900
C189        C  0.15853598  0.33542949  0.50098057    -0.02500
C190        C  0.13119126  0.33611766  0.02504786     0.04300
N191        N  0.12866712  0.31180564  0.05134623     0.66900
H192        H  0.08425999  0.35998817  0.03851300     0.15800
H193        H  0.18325608  0.36124203  0.46021739     0.15500
N194        N  0.14266009  0.41187237  0.45050473     0.74600
O195        O  0.14753423  0.31421307  0.07682496    -0.38900
O196        O  0.11199318  0.28445375  0.54542926    -0.38800
O197        O  0.16446118  0.43542223  0.95821746    -0.39500
O198        O  0.13444981  0.40594495  0.42035054    -0.39600
C199        C  0.11075000  0.13801639  0.01873010    -0.11900
C200        C  0.11424068  0.11053139  0.49570783     0.05100
C201        C  0.14207240  0.11008166  0.47318654    -0.07200
C202        C  0.16563881  0.13634459  0.47372276    -0.07900
C203        C  0.16291243  0.16236834  0.49733974    -0.02500
C204        C  0.13527013  0.16331032  0.02057365     0.04300
N205        N  0.13407198  0.18708773  0.04761282     0.66900
H206        H  0.09020268  0.13798280  0.03690840     0.15800
H207        H  0.18659939  0.13612120  0.45603194     0.15500
N208        N  0.14689353  0.08342058  0.44952065     0.74600
O209        O  0.11474809  0.21128610  0.54462605    -0.38900
O210        O  0.15518261  0.18516122  0.07129543    -0.38800
O211        O  0.14128796  0.08883368  0.41873316    -0.39500
O212        O  0.16553245  0.06152988  0.95632885    -0.39600
C213        C  0.35324902  0.98534355  0.39657784    -0.11900
C214        C  0.38125161  0.50651778  0.38966501     0.05100
C215        C  0.38347381  0.52513057  0.35957420    -0.07200
C216        C  0.35796489  0.52260959  0.33550655    -0.07900
C217        C  0.33146233  0.99864629  0.34104228    -0.02500
C218        C  0.32854349  0.98116622  0.37181996     0.04300
N219        N  0.30141445  0.95830699  0.37805664     0.66900
H220        H  0.35102693  0.97173036  0.41986261     0.15800
H221        H  0.35980563  0.53758548  0.31279450     0.15500
N222        N  0.40989821  0.54878158  0.35401031     0.74600
O223        O  0.30486288  0.92797147  0.36959246    -0.38900
O224        O  0.27897001  0.46842411  0.39964262    -0.38800
O225        O  0.43606767  0.03809869  0.33796084    -0.39500
O226        O  0.40269359  0.57946423  0.35649973    -0.39600
C227        C  0.12798526  0.00994980  0.32558698    -0.11900
C228        C  0.15770532  0.99211743  0.33234168     0.05100
C229        C  0.16079910  0.47553461  0.36249048    -0.07200
C230        C  0.13598229  0.48019026  0.38709085    -0.07900
C231        C  0.10591998  0.49718152  0.38008612    -0.02500
C232        C  0.10181582  0.01180378  0.34938722     0.04300
N233        N  0.07110765  0.02793681  0.34004047     0.66900
H234        H  0.12482801  0.02211906  0.30141031     0.15800
H235        H  0.13990943  0.46968861  0.41174643     0.15500
N236        N  0.18941906  0.45523390  0.37041879     0.74600
O237        O  0.07048849  0.05946927  0.33796450    -0.38900
O238        O  0.04884704  0.01106470  0.32482290    -0.38800
O239        O  0.20915406  0.46473186  0.39346753    -0.41100
O240        O  0.18924812  0.42470881  0.36191866    -0.39600
C241        C  0.14007098  0.47058966  0.10270914    -0.11900
C242        C  0.11543478  0.99444251  0.10766948     0.05100
C243        C  0.11466298  0.01302060  0.13798677    -0.07200
C244        C  0.13935949  0.00823272  0.16243473    -0.07900
C245        C  0.16518478  0.98479198  0.15789271    -0.02500
C246        C  0.16452701  0.46530101  0.12767807     0.04300
N247        N  0.18757031  0.43803082  0.12384297     0.66900
H248        H  0.13932074  0.45402955  0.08098443     0.15800
H249        H  0.13862403  0.02347491  0.18512756     0.15500
N250        N  0.09031572  0.03861666  0.14366081     0.74600
O251        O  0.21323797  0.44169187  0.10521266    -0.38900
O252        O  0.17759726  0.40876656  0.13081699    -0.38800
O253        O  0.06631247  0.03287462  0.16391378    -0.39500
O254        O  0.09889649  0.06856195  0.13788114    -0.39600
C255        C  0.38674860  0.52712125  0.13881170    -0.11900
C256        C  0.39027657  0.99724164  0.11704917     0.05100
C257        C  0.36858388  0.96918288  0.11937976    -0.07200
C258        C  0.34387482  0.96801310  0.14452812    -0.07900
C259        C  0.34006804  0.99457936  0.16722825    -0.02500
C260        C  0.36103420  0.52692083  0.16327964     0.04300
N261        N  0.35591721  0.55562297  0.18439655     0.66900
H262        H  0.40313685  0.54883107  0.13657875     0.15800
H263        H  0.32731372  0.94636989  0.14619989     0.15500
N264        N  0.37167278  0.94131847  0.09687433     0.74600
O265        O  0.37080064  0.55744556  0.21241916    -0.38900
O266        O  0.33205727  0.07031472  0.18204300    -0.38800
O267        O  0.38548208  0.41761766  0.10853524    -0.39500
O268        O  0.35218459  0.93949994  0.07183350    -0.39600
C269        C  0.47131077  0.12236328  0.37233790    -0.11900
C270        C  0.50183128  0.11421439  0.38784409     0.05100
C271        C  0.03146809  0.13170484  0.37855446    -0.07200
C272        C  0.03030655  0.15561483  0.35273068    -0.07900
C273        C  0.49960363  0.16357401  0.33695929    -0.02500
C274        C  0.46983950  0.14666788  0.34697299     0.04300
N275        N  0.43792539  0.15410095  0.33202621     0.66900
H276        H  0.44837546  0.11034946  0.38081325     0.15800
H277        H  0.05324887  0.16878007  0.34564596     0.15500
N278        N  0.06263973  0.12625283  0.39566747     0.74600
O279        O  0.41820356  0.17411121  0.34693709    -0.38900
O280        O  0.42610241  0.13446034  0.30999062    -0.38800
O281        O  0.08611518  0.11102199  0.38050651    -0.39500
O282        O  0.06982222  0.14447443  0.42071637    -0.39600
C283        C  0.46898701  0.33707472  0.36052221    -0.11900
C284        C  0.49242956  0.33941624  0.33403173     0.05100
C285        C  0.01679013  0.36740745  0.33336254    -0.07200
C286        C  0.01428303  0.39232010  0.35820338    -0.07900
C287        C  0.48951900  0.38952189  0.38466259    -0.02500
C288        C  0.46770132  0.36147959  0.38597054     0.04300
N289        N  0.44299894  0.35808126  0.41204285     0.66900
H290        H  0.45172007  0.31594919  0.36158470     0.15800
H291        H  0.03166639  0.41337742  0.35748886     0.15500
N292        N  0.04251987  0.37048876  0.30816630     0.74600
O293        O  0.41348855  0.36856044  0.40668662    -0.38900
O294        O  0.44765057  0.33681188  0.43503930    -0.38800
O295        O  0.03905572  0.39203934  0.28523081    -0.39500
O296        O  0.07162612  0.35920650  0.31419869    -0.39600
C297        C  0.02347364  0.39398530  0.13940673    -0.11900
C298        C  0.50573137  0.38667913  0.10905144     0.05100
C299        C  0.49395916  0.35343129  0.10369569    -0.07200
C300        C  0.49495731  0.32999629  0.12988679    -0.07900
C301        C  0.50993191  0.33767124  0.16091720    -0.02500
C302        C  0.02709896  0.36960402  0.16458603     0.04300
N303        N  0.04775524  0.37723138  0.19306388     0.66900
H304        H  0.03499367  0.41839268  0.14318734     0.15800
H305        H  0.48423473  0.30528836  0.12571354     0.15500
N306        N  0.48139219  0.34247432  0.07181241     0.74600
O307        O  0.07866962  0.36959636  0.19196312    -0.38900
O308        O  0.03813338  0.39950740  0.21359900    -0.38800
O309        O  0.50089895  0.32642228  0.05238790    -0.39500
O310        O  0.44994033  0.33946110  0.06800523    -0.39600
C311        C  0.49984492  0.17227941  0.13233321    -0.11900
C312        C  0.51867290  0.16508656  0.16132786     0.05100
C313        C  0.03537914  0.13393168  0.16290939    -0.07200
C314        C  0.02853633  0.10924887  0.13868040    -0.07900
C315        C  0.50944218  0.11605317  0.11015109    -0.02500
C316        C  0.49675320  0.14896544  0.10608797     0.04300
N317        N  0.48131315  0.15964743  0.07545788     0.66900
H318        H  0.48772350  0.19647928  0.12976828     0.15800
H319        H  0.03941701  0.08478300  0.14155091     0.15500
N320        N  0.06060688  0.12751491  0.18780916     0.74600
O321        O  0.44967164  0.16303234  0.07450018    -0.38900
O322        O  0.49921984  0.17495894  0.05403006    -0.38800
O323        O  0.05591746  0.10437416  0.20897258    -0.39500
O324        O  0.09036547  0.13768205  0.18238891    -0.39600
N325        N  0.00190936  0.25115841  0.79996775    -0.36200
N326        N  0.00975295  0.30330238  0.74867670    -0.56800
N327        N  0.01725913  0.25181430  0.69824464    -0.36200
N328        N  0.01266409  0.19967734  0.74942796    -0.56800
C329        C  0.00730636  0.27881062  0.81914975     0.27400
C330        C  0.00740560  0.22402587  0.81966318     0.27400
C331        C  0.02638075  0.27954475  0.68065392     0.27400
C332        C  0.02890440  0.22477657  0.68107595     0.27400
C333        C  0.99749685  0.32128712  0.77482700     0.36000
C334        C  0.00416291  0.32167117  0.72071661     0.36000
C335        C  0.00229366  0.18022712  0.77540213     0.36000
C336        C  0.01045713  0.18057314  0.72129399     0.36000
C337        C  0.01617138  0.26915131  0.85147283    -0.21500
C338        C  0.01590824  0.23462236  0.85190231    -0.21500
C339        C  0.04424020  0.27000631  0.65206228    -0.21500
C340        C  0.04586880  0.23547093  0.65234280    -0.21500
C341        C  0.98368095  0.35108645  0.76351215    -0.22600
C342        C  0.98765348  0.35120604  0.72906725    -0.22600
C343        C  0.99411789  0.14843981  0.76384061    -0.22600
C344        C  0.99825614  0.14896267  0.72949948    -0.22600
C345        C  0.00167730  0.31234859  0.80888139    -0.17900
C346        C  0.00296023  0.19013274  0.80961899    -0.17900
C347        C  0.02129322  0.19081290  0.68878486    -0.17900
C348        C  0.01620125  0.31284334  0.68834468    -0.17900
H349        H  0.02163575  0.28528926  0.87276924     0.15000
H350        H  0.02112373  0.21922360  0.87366424     0.15000
H351        H  0.05443053  0.28621328  0.63265530     0.15000
H352        H  0.05749577  0.21992630  0.63312778     0.15000
H353        H  0.97239365  0.37082612  0.77857043     0.13300
H354        H  0.97987238  0.37103404  0.71224801     0.13300
H355        H  0.98628425  0.12694174  0.77848983     0.13300
H356        H  0.99331517  0.12809597  0.71273756     0.13300
H357        H  0.99140568  0.25083728  0.77597195     0.26500
H358        H  0.00004941  0.25111062  0.71812996     0.26500
O359        O  0.50403077  0.09838499  0.55341229    -0.79700
O360        O  0.49963958  0.40460524  0.55236431    -0.81300
O361        O  0.44714012  0.00146782  0.59911028    -0.78300
O362        O  0.05753029  0.99922491  0.59399086    -0.76700
O363        O  0.09657810  0.99560447  0.55133080    -0.78500
O364        O  0.40443542  0.50069730  0.55810116    -0.79400
O365        O  0.50416465  0.44513973  0.59307894    -0.80800
O366        O  0.50566258  0.05809014  0.59428297    -0.81000
Eu367      Eu  0.50122305  0.00111275  0.56816607     2.39200
O368        O  0.03232795  0.46675842  0.53032825    -0.88600
O369        O  0.46623577  0.03591529  0.53557132    -0.92200
C370        C  0.50609572  0.08911307  0.58436248     1.02500
C371        C  0.50315916  0.41405966  0.58329397     1.02400
C372        C  0.41573630  0.00018451  0.59045290     1.02300
C373        C  0.08811258  0.99645266  0.58288766     1.00200
H374        H  0.45071802  0.45444843  0.54866795     0.29900
O375        O  0.46427069  0.46821361  0.53402434    -1.00900
H376        H  0.05019680  0.04773366  0.54559830     0.29900
O377        O  0.03499959  0.03436903  0.53239414    -1.03500
O378        O  0.49161725  0.40537648  0.94253985    -0.80700
O379        O  0.50198514  0.09822665  0.94456956    -0.80200
O380        O  0.39899500  0.44872703  0.00169687    -0.78700
O381        O  0.09358360  0.44403204  0.99458452    -0.82000
O382        O  0.09643757  0.05443711  0.99333129    -0.79900
O383        O  0.40187593  0.05791474  0.00834680    -0.78500
O384        O  0.43946279  0.50441660  0.90423342    -0.80000
O385        O  0.04896322  0.50146216  0.89885713    -0.82000
O386        O  0.40012693  0.50361185  0.94676002    -0.78700
O387        O  0.09102149  0.49923673  0.93810731    -0.81400
O388        O  0.43922174  0.40751640  0.00237562    -0.77100
O389        O  0.44343588  0.09791983  0.00472940    -0.77200
O390        O  0.05613898  0.09545172  0.99728338    -0.76800
O391        O  0.05178071  0.40434397  0.99795730    -0.80300
O392        O  0.49322930  0.44641449  0.90223097    -0.79700
O393        O  0.49956001  0.05772729  0.90352645    -0.78000
Eu394      Eu  0.49611436  0.43308065  0.99786866     2.39800
Eu395      Eu  0.49941085  0.06973316  0.99938333     2.39600
Eu396      Eu  0.42943742  0.50265914  0.00161909     2.38400
Eu397      Eu  0.06672135  0.49983280  0.99518341     2.39900
Eu398      Eu  0.49536816  0.50182397  0.93001076     2.39800
O399        O  0.03160604  0.03475403  0.96396750    -0.92500
O400        O  0.46139392  0.46811149  0.96533913    -0.91400
C401        C  0.49180492  0.41542875  0.91162816     1.02700
C402        C  0.50195597  0.08851244  0.91352333     1.01400
C403        C  0.40822270  0.41773974  0.00291111     1.00800
C404        C  0.08320006  0.41333139  0.99647356     1.02800
C405        C  0.08709937  0.08546973  0.99476335     1.01700
C406        C  0.41220110  0.08861173  0.00817870     1.00600
C407        C  0.40879707  0.50447191  0.91527681     1.00700
C408        C  0.08032134  0.50013906  0.90738675     1.03300
H409        H  0.44844261  0.05187715  0.95326107     0.30600
O410        O  0.46259835  0.03707976  0.96640604    -1.04600
H411        H  0.04351279  0.45197891  0.94759714     0.32700
O412        O  0.03029904  0.46633410  0.96231198    -1.07200
N413        N  0.24639895  0.99202908  0.80049676    -0.36200
N414        N  0.19765979  0.98564254  0.74632550    -0.56800
N415        N  0.25126365  0.98462901  0.69779289    -0.36200
N416        N  0.29980330  0.99292729  0.75236519    -0.56800
C417        C  0.21768671  0.00323534  0.81493870     0.27400
C418        C  0.27233435  0.00442877  0.81870934     0.27400
C419        C  0.22436995  0.98969894  0.67758140     0.27400
C420        C  0.27875267  0.99611408  0.68119959     0.27400
C421        C  0.17776536  0.97985132  0.77347521     0.36000
C422        C  0.18048803  0.97455576  0.71904854     0.36000
C423        C  0.31782730  0.98725475  0.78057441     0.36000
C424        C  0.32057998  0.98636768  0.72621004     0.36000
C425        C  0.22546457  0.02401068  0.84202065    -0.21500
C426        C  0.26017417  0.02444536  0.84463783    -0.21500
C427        C  0.23487337  0.00462920  0.64776594    -0.21500
C428        C  0.26935310  0.00853129  0.64999082    -0.21500
C429        C  0.14793539  0.96450388  0.76343318    -0.22600
C430        C  0.14952761  0.96149431  0.72887064    -0.22600
C431        C  0.35010895  0.97647838  0.77229966    -0.22600
C432        C  0.35194701  0.97622447  0.73767869    -0.22600
C433        C  0.18514133  0.99160459  0.80639217    -0.17900
C434        C  0.30638518  0.99607553  0.81311459    -0.17900
C435        C  0.31227345  0.99268675  0.69241383    -0.17900
C436        C  0.19092260  0.98008247  0.68533863    -0.17900
H437        H  0.20792332  0.03650370  0.85887005     0.15000
H438        H  0.27474431  0.03754932  0.86362229     0.15000
H439        H  0.21940364  0.01175892  0.62653503     0.15000
H440        H  0.28570013  0.01895182  0.63071005     0.15000
H441        H  0.12685804  0.95698987  0.77918023     0.13300
H442        H  0.12992977  0.95146888  0.71273426     0.13300
H443        H  0.37050674  0.97054406  0.78934502     0.13300
H444        H  0.37397335  0.96997554  0.72267008     0.13300
H445        H  0.24808464  0.97329884  0.78214583     0.26500
H446        H  0.25140107  0.97074295  0.71999938     0.26500
N447        N  0.24751996  0.30225730  0.01176464    -0.36200
N448        N  0.19680040  0.25056994  0.00319250    -0.56800
N449        N  0.24909332  0.20034156  0.00700554    -0.36200
N450        N  0.29980400  0.25202943  0.01873818    -0.56800
C451        C  0.21890718  0.32019024  0.01656810     0.27400
C452        C  0.27357656  0.32122202  0.02288061     0.27400
C453        C  0.22104198  0.18114539  0.00996389     0.27400
C454        C  0.27542261  0.18175442  0.01769018     0.27400
C455        C  0.17846331  0.27775565  0.99493884     0.36000
C456        C  0.17959431  0.22365713  0.99170931     0.36000
C457        C  0.31947725  0.27957974  0.01520404     0.36000
C458        C  0.32011420  0.22531088  0.01341923     0.36000
C459        C  0.22689841  0.35091240  0.03105216    -0.21500
C460        C  0.26148372  0.35165303  0.03479172    -0.21500
C461        C  0.22962460  0.15000343  0.02279601    -0.21500
C462        C  0.26406358  0.15028271  0.02736422    -0.21500
C463        C  0.14951094  0.26815410  0.97781231    -0.22600
C464        C  0.15022022  0.23371356  0.97578906    -0.22600
C465        C  0.35249152  0.27028796  0.00810496    -0.22600
C466        C  0.35296254  0.23586861  0.00734756    -0.22600
C467        C  0.18634922  0.31068840  0.00534131    -0.17900
C468        C  0.30813658  0.31290938  0.01953534    -0.17900
C469        C  0.30964390  0.19150719  0.01560772    -0.17900
C470        C  0.18847560  0.19025230  0.99891202    -0.17900
H471        H  0.20970786  0.37105266  0.03744818     0.15000
H472        H  0.27615131  0.37239216  0.04468174     0.15000
H473        H  0.21295962  0.12897269  0.02761302     0.15000
H474        H  0.27905200  0.12949244  0.03629851     0.15000
H475        H  0.12966553  0.28422219  0.96844520     0.13300
H476        H  0.13099393  0.21784418  0.96468147     0.13300
H477        H  0.37406085  0.28654299  0.00406762     0.13300
H478        H  0.37495562  0.22040957  0.00273496     0.13300
H479        H  0.24972288  0.28044232  0.99752718     0.26500
H480        H  0.25087838  0.22303733  0.99427795     0.26500
C481        C  0.33121183  0.36206150  0.98895897    -0.11900
C482        C  0.33303285  0.34081735  0.01693262     0.05100
C483        C  0.35792937  0.34568265  0.53727816    -0.07200
C484        C  0.38204560  0.37107238  0.53293721    -0.07900
C485        C  0.38163732  0.39194159  0.00712379    -0.02500
C486        C  0.35473823  0.38788499  0.98424933     0.04300
N487        N  0.34998213  0.41029049  0.95679247     0.66900
H488        H  0.31120540  0.35863993  0.97065877     0.15800
H489        H  0.40118428  0.37484248  0.55182645     0.15500
N490        N  0.35918535  0.32526272  0.56679037     0.74600
O491        O  0.36076826  0.40196153  0.92801399    -0.38900
O492        O  0.32619711  0.43120668  0.95886764    -0.38800
O493        O  0.38052243  0.30186664  0.56840465    -0.39500
O494        O  0.34534090  0.33564554  0.59356491    -0.39600
C495        C  0.37563461  0.12983991  0.47902932    -0.11900
C496        C  0.38602206  0.11494165  0.01089376     0.05100
C497        C  0.37226278  0.12505872  0.04231628    -0.07200
C498        C  0.34804684  0.15065931  0.04356188    -0.07900
C499        C  0.33568627  0.16486909  0.01388063    -0.02500
C500        C  0.35017018  0.15425739  0.47946287     0.04300
N501        N  0.33631143  0.16597590  0.44841342     0.66900
H502        H  0.38569359  0.12126029  0.45504838     0.15800
H503        H  0.33794968  0.15868940  0.06771620     0.15500
N504        N  0.38085316  0.10833412  0.07292178     0.74600
O505        O  0.34752024  0.19263890  0.43541644    -0.38900
O506        O  0.30512571  0.15233114  0.94221908    -0.38800
O507        O  0.39399599  0.12489128  0.59450235    -0.39500
O508        O  0.36373360  0.08300046  0.08151954    -0.39600
C509        C  0.10542683  0.35994601  0.51995533    -0.11900
C510        C  0.10924664  0.38654739  0.99790600     0.05100
C511        C  0.13830581  0.38716878  0.97704162    -0.07200
C512        C  0.16279916  0.36216186  0.97972028    -0.07900
C513        C  0.15961644  0.33669008  0.00355837    -0.02500
C514        C  0.13048786  0.33522846  0.52295931     0.04300
N515        N  0.12836278  0.31130791  0.54964401     0.66900
H516        H  0.08409207  0.35966528  0.53719226     0.15800
H517        H  0.18462509  0.36270370  0.96310047     0.15500
N518        N  0.14321824  0.41251143  0.95229488     0.74600
O519        O  0.14693237  0.31465167  0.57523721    -0.38900
O520        O  0.11166826  0.28540277  0.04674376    -0.38800
O521        O  0.16477217  0.43395727  0.45643438    -0.39500
O522        O  0.13560303  0.40589923  0.92212397    -0.39600
C523        C  0.11150220  0.13694781  0.51916080    -0.11900
C524        C  0.11350671  0.11189948  0.99493881     0.05100
C525        C  0.14123824  0.11190073  0.97227377    -0.07200
C526        C  0.16468688  0.13827926  0.97305795    -0.07900
C527        C  0.16200969  0.16389809  0.99711685    -0.02500
C528        C  0.13608075  0.16220889  0.52071843     0.04300
N529        N  0.13455677  0.18669861  0.54710447     0.66900
H530        H  0.09083209  0.13727390  0.53719714     0.15800
H531        H  0.18566589  0.13831514  0.95538776     0.15500
N532        N  0.14629495  0.08541954  0.94845966     0.74600
O533        O  0.11569801  0.21275164  0.04517975    -0.38900
O534        O  0.15625451  0.18634223  0.57034068    -0.38800
O535        O  0.14109122  0.09112266  0.91766101    -0.39500
O536        O  0.16604265  0.05946844  0.45741937    -0.39600
C537        C  0.35279837  0.98743427  0.89647881    -0.11900
C538        C  0.38164707  0.50414118  0.88986935     0.05100
C539        C  0.38353605  0.52317645  0.86002961    -0.07200
C540        C  0.35834998  0.52014980  0.83569635    -0.07900
C541        C  0.33125460  0.00027451  0.84077649    -0.02500
C542        C  0.32809161  0.98322683  0.87176320     0.04300
N543        N  0.30069148  0.96077071  0.87829611     0.66900
H544        H  0.35036748  0.97412057  0.91991361     0.15800
H545        H  0.35987100  0.53547432  0.81319867     0.15500
N546        N  0.40916734  0.54780308  0.85507499     0.74600
O547        O  0.30353009  0.93041560  0.86967330    -0.38900
O548        O  0.27992269  0.46312093  0.89768164    -0.38800
O549        O  0.43538695  0.03977774  0.83627236    -0.39500
O550        O  0.40074715  0.57820159  0.85729508    -0.39600
C551        C  0.12725250  0.00905840  0.82451802    -0.11900
C552        C  0.15786481  0.99322686  0.83235786     0.05100
C553        C  0.16082237  0.47608936  0.86250341    -0.07200
C554        C  0.13591706  0.48046574  0.88707529    -0.07900
C555        C  0.10621513  0.49821206  0.88038714    -0.02500
C556        C  0.10086516  0.01079339  0.84804983     0.04300
N557        N  0.06923204  0.02424643  0.83753222     0.66900
H558        H  0.12351877  0.01963024  0.79967413     0.15800
H559        H  0.13936489  0.46897231  0.91135390     0.15500
N560        N  0.18866642  0.45450421  0.86970759     0.74600
O561        O  0.06602782  0.05558696  0.83499325    -0.38900
O562        O  0.04884321  0.00538671  0.82204300    -0.38800
O563        O  0.20904455  0.46269191  0.89269960    -0.41100
O564        O  0.18721051  0.42422593  0.86045470    -0.39600
C565        C  0.14147094  0.47139030  0.60155984    -0.11900
C566        C  0.11522505  0.99301498  0.60834567     0.05100
C567        C  0.11559350  0.01266957  0.63797147    -0.07200
C568        C  0.14010096  0.00743433  0.66252089    -0.07900
C569        C  0.16466058  0.98260842  0.65863849    -0.02500
C570        C  0.16617039  0.46628462  0.62636849     0.04300
N571        N  0.19164864  0.44158447  0.62048344     0.66900
H572        H  0.14228176  0.45649417  0.57865315     0.15800
H573        H  0.14028858  0.02341296  0.68470826     0.15500
N574        N  0.09241391  0.03942903  0.64297511     0.74600
O575        O  0.21618903  0.44866318  0.60133534    -0.38900
O576        O  0.18456120  0.41115331  0.62564028    -0.38800
O577        O  0.06885662  0.03553188  0.66416795    -0.39500
O578        O  0.10195041  0.06873764  0.63557361    -0.39600
C579        C  0.38648548  0.52581247  0.63882075    -0.11900
C580        C  0.39027369  0.99782208  0.61748788     0.05100
C581        C  0.36863791  0.96972227  0.61959411    -0.07200
C582        C  0.34371671  0.96842580  0.64447745    -0.07900
C583        C  0.33968983  0.99486736  0.66724516    -0.02500
C584        C  0.36095984  0.52515647  0.66345767     0.04300
N585        N  0.35596698  0.55350177  0.68508004     0.66900
H586        H  0.40295091  0.54750159  0.63697753     0.15800
H587        H  0.32723695  0.94670653  0.64596672     0.15500
N588        N  0.37213853  0.94181409  0.59723823     0.74600
O589        O  0.37121255  0.55499659  0.71292321    -0.38900
O590        O  0.33138818  0.07007942  0.68345187    -0.38800
O591        O  0.38436207  0.41721306  0.60526670    -0.39500
O592        O  0.35279397  0.93970211  0.57211079    -0.39600
C593        C  0.47248563  0.12402427  0.87240838    -0.11900
C594        C  0.50291222  0.11467268  0.88739846     0.05100
C595        C  0.03343918  0.13049682  0.87721051    -0.07200
C596        C  0.03280599  0.15457808  0.85153538    -0.07900
C597        C  0.50187606  0.16391015  0.83639239    -0.02500
C598        C  0.47162717  0.14820944  0.84691191     0.04300
N599        N  0.43985795  0.15660294  0.83220564     0.66900
H600        H  0.44918615  0.11290175  0.88119038     0.15800
H601        H  0.05613958  0.16682169  0.84405624     0.15500
N602        N  0.06479164  0.12319379  0.89321565     0.74600
O603        O  0.42062833  0.17676249  0.84754987    -0.38900
O604        O  0.42749605  0.13748995  0.80999989    -0.38800
O605        O  0.08669931  0.10657974  0.87719713    -0.39500
O606        O  0.07400048  0.14099706  0.91790123    -0.39600
C607        C  0.47218485  0.33771399  0.85936821    -0.11900
C608        C  0.49767142  0.33934056  0.83481040     0.05100
C609        C  0.02225884  0.36642416  0.83573401    -0.07200
C610        C  0.01885559  0.39134058  0.86045193    -0.07900
C611        C  0.49236617  0.38957001  0.88489483    -0.02500
C612        C  0.46955265  0.36232832  0.88447387     0.04300
N613        N  0.44207985  0.36048369  0.90776507     0.66900
H614        H  0.45410268  0.31724625  0.85891453     0.15800
H615        H  0.03686584  0.41187663  0.86101640     0.15500
N616        N  0.04970300  0.36864044  0.81230089     0.74600
O617        O  0.41372717  0.37147278  0.89865756    -0.38900
O618        O  0.44338971  0.33974614  0.93168779    -0.38800
O619        O  0.04819243  0.38959230  0.78858083    -0.39500
O620        O  0.07803059  0.35669678  0.82034721    -0.39600
C621        C  0.02737426  0.39412559  0.63801403    -0.11900
C622        C  0.50690414  0.38741414  0.60941912     0.05100
C623        C  0.49335667  0.35469616  0.60545706    -0.07200
C624        C  0.49601485  0.33125619  0.63147355    -0.07900
C625        C  0.51386953  0.33847735  0.66099417    -0.02500
C626        C  0.03208977  0.36987625  0.66318304     0.04300
N627        N  0.05494919  0.37707868  0.69006017     0.66900
H628        H  0.03999833  0.41815614  0.64053267     0.15800
H629        H  0.48393746  0.30699168  0.62849728     0.15500
N630        N  0.47607034  0.34463353  0.57561769     0.74600
O631        O  0.08568428  0.36945634  0.68642972    -0.38900
O632        O  0.04693077  0.39879946  0.71185871    -0.38800
O633        O  0.49213626  0.32824312  0.55351896    -0.39500
O634        O  0.44439811  0.34171183  0.57691765    -0.39600
C635        C  0.50018653  0.17218956  0.63230794    -0.11900
C636        C  0.51984873  0.16550544  0.66085075     0.05100
C637        C  0.03780385  0.13458991  0.66231736    -0.07200
C638        C  0.03078557  0.10974689  0.63828234    -0.07900
C639        C  0.51030630  0.11599864  0.61015580    -0.02500
C640        C  0.49678801  0.14861241  0.60631547     0.04300
N641        N  0.48001613  0.15867899  0.57618863     0.66900
H642        H  0.48760447  0.19617775  0.62993347     0.15800
H643        H  0.04207012  0.08547223  0.64091092     0.15500
N644        N  0.06316853  0.12832495  0.68711868     0.74600
O645        O  0.44835841  0.16202884  0.57659084    -0.38900
O646        O  0.49691442  0.17371751  0.55378049    -0.38800
O647        O  0.05834551  0.10568933  0.70879839    -0.39500
O648        O  0.09299689  0.13807928  0.68132886    -0.39600
N649        N  0.00099428  0.75166462  0.29963920    -0.36200
N650        N  0.01100584  0.80395165  0.24900962    -0.56800
N651        N  0.01713042  0.75239319  0.19801178    -0.36200
N652        N  0.01030079  0.70018935  0.24857154    -0.56800
C653        C  0.00656932  0.77904029  0.31920753     0.27400
C654        C  0.00552405  0.72422267  0.31917176     0.27400
C655        C  0.02730063  0.77996242  0.18078123     0.27400
C656        C  0.02776516  0.72515455  0.18049386     0.27400
C657        C  0.99903162  0.82222845  0.27511205     0.36000
C658        C  0.00642427  0.82265903  0.22108488     0.36000
C659        C  0.99959139  0.68079336  0.27445650     0.36000
C660        C  0.00764451  0.68133159  0.22028780     0.36000
C661        C  0.01450474  0.76892273  0.35160656    -0.21500
C662        C  0.01354911  0.73441601  0.35169052    -0.21500
C663        C  0.04478858  0.77014807  0.15205829    -0.21500
C664        C  0.04518242  0.73557692  0.15192419    -0.21500
C665        C  0.98653842  0.85259876  0.26379915    -0.22600
C666        C  0.99098500  0.85276939  0.22942021    -0.22600
C667        C  0.99075019  0.64926341  0.26264169    -0.22600
C668        C  0.99468062  0.64998654  0.22827919    -0.22600
C669        C  0.00198521  0.81281429  0.30918302    -0.17900
C670        C  0.00057516  0.69043581  0.30878694    -0.17900
C671        C  0.01905610  0.69138012  0.18789527    -0.17900
C672        C  0.01813411  0.81346303  0.18869323    -0.17900
H673        H  0.01980210  0.78476105  0.37317122     0.15000
H674        H  0.01787990  0.71880663  0.37349043     0.15000
H675        H  0.05550573  0.78623759  0.13282913     0.15000
H676        H  0.05630148  0.71987356  0.13254262     0.15000
H677        H  0.97569995  0.87262277  0.27880524     0.13300
H678        H  0.98410922  0.87294942  0.21262635     0.13300
H679        H  0.98274014  0.62772646  0.27710726     0.13300
H680        H  0.98929001  0.62934746  0.21136811     0.13300
H681        H  0.99099253  0.75179870  0.27543873     0.26500
H682        H  0.99986230  0.75214665  0.21785242     0.26500
O683        O  0.50338213  0.59896850  0.05213855    -0.79700
O684        O  0.50000354  0.90439694  0.05254212    -0.81300
O685        O  0.44728917  0.50264059  0.09803406    -0.78300
O686        O  0.05793757  0.50086488  0.09249405    -0.76700
O687        O  0.09682664  0.49786571  0.04960257    -0.78500
O688        O  0.40461479  0.99960984  0.05931570    -0.79400
O689        O  0.50477450  0.94477329  0.09338434    -0.80800
O690        O  0.50541848  0.55872737  0.09302803    -0.81000
Eu691      Eu  0.50141732  0.50159253  0.06718705     2.39200
O692        O  0.03239129  0.96683500  0.03115563    -0.88600
O693        O  0.46609834  0.53595639  0.03446076    -0.92200
C694        C  0.50561281  0.58975192  0.08308969     1.02500
C695        C  0.50374992  0.91375614  0.08346050     1.02400
C696        C  0.41588820  0.50140918  0.08935155     1.02300
C697        C  0.08849833  0.49877590  0.08116205     1.00200
H698        H  0.45089416  0.95404501  0.04938979     0.29900
O699        O  0.46447517  0.96810543  0.03470835    -1.00900
H700        H  0.04990962  0.54872607  0.04417142     0.29900
O701        O  0.03465954  0.53491310  0.03096610    -1.03500
O702        O  0.49047836  0.90500260  0.44320526    -0.80700
O703        O  0.50121353  0.59809813  0.44356904    -0.80200
O704        O  0.39809237  0.94939796  0.50190840    -0.78700
O705        O  0.09260348  0.94272493  0.49531890    -0.82000
O706        O  0.09619844  0.55403385  0.49200768    -0.79900
O707        O  0.40178547  0.55792941  0.50670912    -0.78500
O708        O  0.43949384  0.00506462  0.40526599    -0.80000
O709        O  0.04897129  0.00089743  0.40020591    -0.82000
O710        O  0.40019327  0.00467751  0.44781929    -0.78700
O711        O  0.09098213  0.99858763  0.43949955    -0.81400
O712        O  0.43787644  0.90777356  0.50272222    -0.77100
O713        O  0.44342695  0.59786356  0.50345664    -0.77200
O714        O  0.05586675  0.59502473  0.49591709    -0.76800
O715        O  0.05033937  0.90345733  0.49830622    -0.80300
O716        O  0.49260951  0.94617893  0.40305801    -0.79700
O717        O  0.49862248  0.55750907  0.40261598    -0.78000
Eu718      Eu  0.49522695  0.93257596  0.49868888     2.39800
Eu719      Eu  0.49933293  0.56962509  0.49831689     2.39600
Eu720      Eu  0.42934129  0.00287962  0.50269066     2.38400
Eu721      Eu  0.06672072  0.99895153  0.49663106     2.39900
Eu722      Eu  0.49532774  0.00153025  0.43107270     2.39800
O723        O  0.03164757  0.53468877  0.46293133    -0.92500
O724        O  0.46093104  0.96811220  0.46627664    -0.91400
C725        C  0.49085076  0.91515622  0.41231508     1.02700
C726        C  0.50081653  0.58834131  0.41255724     1.01400
C727        C  0.40696149  0.91830019  0.50291988     1.00800
C728        C  0.08183135  0.91213114  0.49679278     1.02800
C729        C  0.08680029  0.58502144  0.49336109     1.01700
C730        C  0.41215805  0.58860569  0.50659150     1.00600
C731        C  0.40884221  0.00554251  0.41633374     1.00700
C732        C  0.08031488  0.99952770  0.40875772     1.03300
H733        H  0.44847104  0.55154186  0.45218438     0.30600
O734        O  0.46254517  0.53694835  0.46529402    -1.04600
H735        H  0.04284643  0.95160712  0.44884606     0.32700
O736        O  0.02987921  0.96595424  0.46354014    -1.07200
N737        N  0.24590908  0.49169058  0.29921751    -0.36200
N738        N  0.19744301  0.48636424  0.24465121    -0.56800
N739        N  0.25126617  0.48884797  0.19635755    -0.36200
N740        N  0.29958508  0.49634635  0.25118885    -0.56800
C741        C  0.21687652  0.50127564  0.31423668     0.27400
C742        C  0.27148320  0.50395838  0.31805548     0.27400
C743        C  0.22443254  0.49353530  0.17599670     0.27400
C744        C  0.27866338  0.50076064  0.17993436     0.27400
C745        C  0.17726050  0.47967429  0.27136872     0.36000
C746        C  0.18028593  0.47680503  0.21680575     0.36000
C747        C  0.31756982  0.48986354  0.27925874     0.36000
C748        C  0.32056974  0.49092565  0.22490228     0.36000
C749        C  0.22406727  0.52073986  0.34244139    -0.21500
C750        C  0.25872972  0.52224078  0.34497220    -0.21500
C751        C  0.23489445  0.50860339  0.14622350    -0.21500
C752        C  0.26927652  0.51306687  0.14867837    -0.21500
C753        C  0.14719950  0.46542435  0.26046334    -0.22600
C754        C  0.14900797  0.46390505  0.22582895    -0.22600
C755        C  0.35005904  0.47990313  0.27072344    -0.22600
C756        C  0.35204979  0.48090072  0.23615252    -0.22600
C757        C  0.18451877  0.48974439  0.30483478    -0.17900
C758        C  0.30580516  0.49695505  0.31214279    -0.17900
C759        C  0.31217203  0.49747585  0.19115776    -0.17900
C760        C  0.19108973  0.48335984  0.18341656    -0.17900
H761        H  0.20620092  0.53186426  0.35991157     0.15000
H762        H  0.27289902  0.53488347  0.36456243     0.15000
H763        H  0.21947545  0.51535161  0.12482546     0.15000
H764        H  0.28560153  0.52363969  0.12946144     0.15000
H765        H  0.12583307  0.45773212  0.27573118     0.13300
H766        H  0.12933753  0.45498191  0.20914366     0.13300
H767        H  0.37044104  0.47347881  0.28760333     0.13300
H768        H  0.37419045  0.47531387  0.22104568     0.13300
H769        H  0.24815319  0.47408222  0.27983944     0.26500
H770        H  0.25154370  0.47475976  0.21841275     0.26500
N771        N  0.24628770  0.80174853  0.50897038    -0.36200
N772        N  0.19590572  0.74967890  0.50181481    -0.56800
N773        N  0.24876035  0.69983054  0.50430555    -0.36200
N774        N  0.29912242  0.75188890  0.51444178    -0.56800
C775        C  0.21763165  0.81941691  0.51447572     0.27400
C776        C  0.27241579  0.82091467  0.51953503     0.27400
C777        C  0.22090876  0.68052500  0.50809731     0.27400
C778        C  0.27543206  0.68147074  0.51451826     0.27400
C779        C  0.17716550  0.77664433  0.49381078     0.36000
C780        C  0.17883975  0.72264496  0.49049743     0.36000
C781        C  0.31848806  0.77961307  0.51072255     0.36000
C782        C  0.31961907  0.72534480  0.50896507     0.36000
C783        C  0.22566076  0.85020774  0.52876747    -0.21500
C784        C  0.26031023  0.85123173  0.53175572    -0.21500
C785        C  0.22993651  0.64952624  0.52095650    -0.21500
C786        C  0.26447109  0.65001360  0.52470856    -0.21500
C787        C  0.14808839  0.76679775  0.47704870    -0.22600
C788        C  0.14916141  0.73239552  0.47493466    -0.22600
C789        C  0.35149780  0.77061596  0.50320721    -0.22600
C790        C  0.35228898  0.73619208  0.50247476    -0.22600
C791        C  0.18491998  0.80960117  0.50404171    -0.17900
C792        C  0.30697403  0.81280950  0.51563919    -0.17900
C793        C  0.30952802  0.69147668  0.51173393    -0.17900
C794        C  0.18810468  0.68938420  0.49765828    -0.17900
H795        H  0.20842814  0.87018389  0.53556943     0.15000
H796        H  0.27499001  0.87207912  0.54139265     0.15000
H797        H  0.21348576  0.62845981  0.52632018     0.15000
H798        H  0.27975712  0.62936429  0.53346573     0.15000
H799        H  0.12796730  0.78267626  0.46794062     0.13300
H800        H  0.12996949  0.71634181  0.46403371     0.13300
H801        H  0.37288496  0.78707914  0.49904680     0.13300
H802        H  0.37439430  0.72092396  0.49775249     0.13300
H803        H  0.24835296  0.77994827  0.49468959     0.26500
H804        H  0.25006625  0.72243313  0.49135298     0.26500
C805        C  0.33005311  0.86297180  0.48664396    -0.11900
C806        C  0.33178246  0.84083594  0.51392088     0.05100
C807        C  0.35802062  0.84455093  0.03538617    -0.07200
C808        C  0.38204304  0.87017459  0.03186729    -0.07900
C809        C  0.38005492  0.89264570  0.50629088    -0.02500
C810        C  0.35346193  0.88909963  0.48301205     0.04300
N811        N  0.34883005  0.91237678  0.45631316     0.66900
H812        H  0.31024348  0.86000207  0.46805901     0.15800
H813        H  0.40094635  0.87363105  0.05103107     0.15500
N814        N  0.35913930  0.82343929  0.06440954     0.74600
O815        O  0.36074960  0.90553188  0.42758509    -0.38900
O816        O  0.32448316  0.93263170  0.45854443    -0.38800
O817        O  0.38097812  0.80049116  0.06588046    -0.39500
O818        O  0.34458004  0.83288455  0.09115795    -0.39600
C819        C  0.37519640  0.62879634  0.97688151    -0.11900
C820        C  0.38601715  0.61498446  0.50876135     0.05100
C821        C  0.37208017  0.62564082  0.53992158    -0.07200
C822        C  0.34793942  0.65131687  0.54055635    -0.07900
C823        C  0.33581663  0.66506391  0.51055177    -0.02500
C824        C  0.34983784  0.65328608  0.97657337     0.04300
N825        N  0.33697669  0.66506195  0.94512622     0.66900
H826        H  0.38560925  0.61987945  0.95317334     0.15800
H827        H  0.33763143  0.65970697  0.56449925     0.15500
N828        N  0.38031773  0.60934391  0.57086296     0.74600
O829        O  0.34908456  0.69137481  0.93219928    -0.38900
O830        O  0.30580164  0.65170183  0.43884591    -0.38800
O831        O  0.39470677  0.62762352  0.09171978    -0.39500
O832        O  0.36325505  0.58398048  0.57948081    -0.39600
C833        C  0.10624611  0.86052560  0.01922276    -0.11900
C834        C  0.10754106  0.88508526  0.49758917     0.05100
C835        C  0.13607856  0.88550182  0.47604866    -0.07200
C836        C  0.16063342  0.86057465  0.47843016    -0.07900
C837        C  0.15798840  0.83534939  0.50256090    -0.02500
C838        C  0.13145371  0.83588629  0.02148994     0.04300
N839        N  0.13029079  0.81204098  0.04829673     0.66900
H840        H  0.08578388  0.86061592  0.03748743     0.15800
H841        H  0.18215257  0.86104841  0.46141182     0.15500
N842        N  0.14069490  0.91090225  0.45131523     0.74600
O843        O  0.15032868  0.81496971  0.07281111    -0.38900
O844        O  0.11028344  0.78419838  0.54648124    -0.38800
O845        O  0.16332787  0.93156352  0.94991828    -0.39500
O846        O  0.13144904  0.90491798  0.42147134    -0.39600
C847        C  0.11031481  0.63834843  0.01540922    -0.11900
C848        C  0.11314711  0.61135403  0.49354589     0.05100
C849        C  0.14100328  0.61115679  0.47106400    -0.07200
C850        C  0.16461629  0.63731682  0.47208700    -0.07900
C851        C  0.16187317  0.66290647  0.49614280    -0.02500
C852        C  0.13500272  0.66348976  0.01667505     0.04300
N853        N  0.13353732  0.68832111  0.04274260     0.66900
H854        H  0.08972260  0.63890277  0.03352993     0.15800
H855        H  0.18565961  0.63730696  0.45449132     0.15500
N856        N  0.14591999  0.58479003  0.44708990     0.74600
O857        O  0.11417822  0.71160230  0.54386377    -0.38900
O858        O  0.15540494  0.68844669  0.06582427    -0.38800
O859        O  0.14013308  0.59053696  0.41640872    -0.39500
O860        O  0.16437842  0.56024478  0.95394825    -0.39600
C861        C  0.35270512  0.48654379  0.39522133    -0.11900
C862        C  0.38162200  0.00554153  0.39099623     0.05100
C863        C  0.38401662  0.02367761  0.36062003    -0.07200
C864        C  0.35872997  0.02060959  0.33636538    -0.07900
C865        C  0.33061531  0.50071096  0.34000161    -0.02500
C866        C  0.32770431  0.48298301  0.37065749     0.04300
N867        N  0.30016304  0.46066972  0.37709842     0.66900
H868        H  0.35048289  0.47267905  0.41835741     0.15800
H869        H  0.36064774  0.03521108  0.31341455     0.15500
N870        N  0.41054586  0.04718028  0.35482372     0.74600
O871        O  0.30277077  0.43035286  0.36827380    -0.38900
O872        O  0.27963383  0.96581266  0.40011385    -0.38800
O873        O  0.43504028  0.54019907  0.33632820    -0.39500
O874        O  0.40348054  0.07794580  0.35655773    -0.39600
C875        C  0.12739602  0.50849300  0.32369706    -0.11900
C876        C  0.15701281  0.49054946  0.33052989     0.05100
C877        C  0.16141847  0.97682520  0.36418515    -0.07200
C878        C  0.13639953  0.98095004  0.38867818    -0.07900
C879        C  0.10622366  0.99775105  0.38173471    -0.02500
C880        C  0.10142348  0.51087642  0.34760988     0.04300
N881        N  0.07103473  0.52767570  0.33842960     0.66900
H882        H  0.12429124  0.52061877  0.29949059     0.15800
H883        H  0.14021391  0.97003979  0.41315778     0.15500
N884        N  0.18999273  0.95644601  0.37201787     0.74600
O885        O  0.07089167  0.55926408  0.33726816    -0.38900
O886        O  0.04870777  0.51156572  0.32249862    -0.38800
O887        O  0.20998117  0.96611456  0.39477334    -0.41100
O888        O  0.18931570  0.92574976  0.36419803    -0.39600
C889        C  0.14177535  0.97140907  0.10255011    -0.11900
C890        C  0.11585026  0.49603905  0.10629240     0.05100
C891        C  0.11698892  0.51686733  0.13505725    -0.07200
C892        C  0.14154576  0.51191915  0.15960473    -0.07900
C893        C  0.16516050  0.48612772  0.15656753    -0.02500
C894        C  0.16651342  0.96630339  0.12734715     0.04300
N895        N  0.19210359  0.94174413  0.12132901     0.66900
H896        H  0.14270398  0.95666222  0.07955183     0.15800
H897        H  0.14225753  0.52852900  0.18130773     0.15500
N898        N  0.09367689  0.54355423  0.13983372     0.74600
O899        O  0.21641889  0.94889153  0.10192122    -0.38900
O900        O  0.18527061  0.91129313  0.12669173    -0.38800
O901        O  0.07176442  0.54060592  0.16284944    -0.39500
O902        O  0.10195317  0.57248814  0.12988630    -0.39600
C903        C  0.38687659  0.02366662  0.14036002    -0.11900
C904        C  0.39034511  0.49999652  0.11633844     0.05100
C905        C  0.36841271  0.47218904  0.11906912    -0.07200
C906        C  0.34339339  0.47180873  0.14387409    -0.07900
C907        C  0.33946319  0.49895286  0.16581949    -0.02500
C908        C  0.36152162  0.02267629  0.16515612     0.04300
N909        N  0.35658757  0.05081125  0.18706877     0.66900
H910        H  0.40313473  0.04551041  0.13853431     0.15800
H911        H  0.32675009  0.45025942  0.14594166     0.15500
N912        N  0.37160577  0.44374988  0.09733691     0.74600
O913        O  0.37199146  0.05208054  0.21483623    -0.38900
O914        O  0.33152768  0.57506033  0.17852120    -0.38800
O915        O  0.38587243  0.91499328  0.10719227    -0.39500
O916        O  0.35245751  0.44142415  0.07207503    -0.39600
C917        C  0.47069854  0.62299565  0.37113574    -0.11900
C918        C  0.50121198  0.61450245  0.38644117     0.05100
C919        C  0.03098322  0.63185712  0.37731795    -0.07200
C920        C  0.03031468  0.65554954  0.35130627    -0.07900
C921        C  0.49932680  0.66358637  0.33534661    -0.02500
C922        C  0.46939004  0.64711051  0.34558055     0.04300
N923        N  0.43748782  0.65481290  0.33073498     0.66900
H924        H  0.44767860  0.61144014  0.37995888     0.15800
H925        H  0.05344523  0.66850191  0.34442835     0.15500
N926        N  0.06186966  0.62644186  0.39489083     0.74600
O927        O  0.41793956  0.67488418  0.34578757    -0.38900
O928        O  0.42541304  0.63522491  0.30878665    -0.38800
O929        O  0.08544613  0.61103969  0.38009318    -0.39500
O930        O  0.06884760  0.64495590  0.41978560    -0.39600
C931        C  0.47055496  0.83828800  0.35883131    -0.11900
C932        C  0.49690476  0.83926243  0.33515315     0.05100
C933        C  0.02301121  0.86597817  0.33757992    -0.07200
C934        C  0.01922137  0.89083205  0.36231987    -0.07900
C935        C  0.49143885  0.88937720  0.38543682    -0.02500
C936        C  0.46784202  0.86281126  0.38405728     0.04300
N937        N  0.43969400  0.86147294  0.40657261     0.66900
H938        H  0.45189642  0.81836803  0.35763109     0.15800
H939        H  0.03778886  0.91082409  0.36384229     0.15500
N940        N  0.05159946  0.86748967  0.31549693     0.74600
O941        O  0.41177454  0.87281037  0.39660254    -0.38900
O942        O  0.43997712  0.84068185  0.43049028    -0.38800
O943        O  0.05192290  0.88865822  0.29191015    -0.39500
O944        O  0.07909449  0.85459254  0.32480608    -0.39600
C945        C  0.03016131  0.89377383  0.13722324    -0.11900
C946        C  0.50772177  0.88710428  0.10944145     0.05100
C947        C  0.49393945  0.85448578  0.10561617    -0.07200
C948        C  0.49655879  0.83115303  0.13169623    -0.07900
C949        C  0.51458956  0.83841554  0.16110256    -0.02500
C950        C  0.03519674  0.86954888  0.16234115     0.04300
N951        N  0.05942167  0.87610429  0.18816145     0.66900
H952        H  0.04386789  0.91729788  0.13878890     0.15800
H953        H  0.48425211  0.80697896  0.12890213     0.15500
N954        N  0.47632365  0.84449552  0.07594256     0.74600
O955        O  0.08984928  0.86813412  0.18298272    -0.38900
O956        O  0.05269899  0.89750989  0.21070125    -0.38800
O957        O  0.49191775  0.82750336  0.05396600    -0.39500
O958        O  0.44459625  0.84234957  0.07737065    -0.39600
C959        C  0.49975612  0.67292711  0.13100549    -0.11900
C960        C  0.51837633  0.66579980  0.16014933     0.05100
C961        C  0.03510519  0.63483159  0.16179284    -0.07200
C962        C  0.02855971  0.61020106  0.13741754    -0.07900
C963        C  0.50967196  0.61666109  0.10891627    -0.02500
C964        C  0.49680254  0.64950835  0.10479255     0.04300
N965        N  0.48131546  0.66001747  0.07413033     0.66900
H966        H  0.48767352  0.69713515  0.12833413     0.15800
H967        H  0.03951156  0.58581310  0.14027616     0.15500
N968        N  0.05932832  0.62793254  0.18753839     0.74600
O969        O  0.44970328  0.66364657  0.07329660    -0.38900
O970        O  0.49923186  0.67500267  0.05248000    -0.38800
O971        O  0.05325025  0.60515173  0.20875760    -0.39500
O972        O  0.08952125  0.63722604  0.18305301    -0.39600
N973        N  0.99886745  0.75116017  0.79980718    -0.36200
N974        N  0.00910003  0.80324748  0.74908751    -0.56800
N975        N  0.01631781  0.75157374  0.69831930    -0.36200
N976        N  0.00947359  0.69950631  0.74892939    -0.56800
C977        C  0.00414735  0.77859861  0.81940217     0.27400
C978        C  0.00306688  0.72376550  0.81947067     0.27400
C979        C  0.02626773  0.77922800  0.68110570     0.27400
C980        C  0.02765473  0.72445017  0.68106418     0.27400
C981        C  0.99687247  0.82154521  0.77505816     0.36000
C982        C  0.00430987  0.82171295  0.72103979     0.36000
C983        C  0.99863984  0.68007214  0.77473061     0.36000
C984        C  0.00783701  0.68038330  0.72073138     0.36000
C985        C  0.01149662  0.76853106  0.85196339    -0.21500
C986        C  0.01043386  0.73403468  0.85212361    -0.21500
C987        C  0.04434118  0.76958428  0.65268279    -0.21500
C988        C  0.04529016  0.73503448  0.65269330    -0.21500
C989        C  0.98395893  0.85165436  0.76353875    -0.22600
C990        C  0.98838866  0.85163408  0.72915947    -0.22600
C991        C  0.99079643  0.64825657  0.76297646    -0.22600
C992        C  0.99549092  0.64878951  0.72871164    -0.22600
C993        C  0.99990597  0.81239205  0.80918913    -0.17900
C994        C  0.99869868  0.68991340  0.80902246    -0.17900
C995        C  0.01935409  0.69057466  0.68841068    -0.17900
C996        C  0.01649103  0.81260870  0.68879107    -0.17900
H997        H  0.01651316  0.78437822  0.87358608     0.15000
H998        H  0.01438750  0.71847461  0.87403418     0.15000
H999        H  0.05509716  0.78575589  0.63354601     0.15000
H1000       H  0.05692133  0.71943085  0.63352980     0.15000
H1001       H  0.97283397  0.87162228  0.77841013     0.13300
H1002       H  0.98124299  0.87160600  0.71222994     0.13300
H1003       H  0.98293155  0.62665998  0.77743482     0.13300
H1004       H  0.99087405  0.62790380  0.71188679     0.13300
H1005       H  0.98941822  0.75117603  0.77538835     0.26500
H1006       H  0.99876961  0.75114587  0.71791189     0.26500
O1007       O  0.50328055  0.59914581  0.55199917    -0.79700
O1008       O  0.49928859  0.90385962  0.55299261    -0.81300
O1009       O  0.44670217  0.50245044  0.59749081    -0.78300
O1010       O  0.05756471  0.49991244  0.59224618    -0.76700
O1011       O  0.09664728  0.49685401  0.54957978    -0.78500
O1012       O  0.40475353  0.00019144  0.55982677    -0.79400
O1013       O  0.50472207  0.94430419  0.59373470    -0.80800
O1014       O  0.50500561  0.55878490  0.59279219    -0.81000
Eu1015     Eu  0.50097449  0.50175260  0.56688243     2.39200
O1016       O  0.03187909  0.96637157  0.53164614    -0.88600
O1017       O  0.46584671  0.53626342  0.53417192    -0.92200
C1018       C  0.50533907  0.58982371  0.58294354     1.02500
C1019       C  0.50338339  0.91328558  0.58383813     1.02400
C1020       C  0.41532730  0.50108049  0.58873482     1.02300
C1021       C  0.08817004  0.49760010  0.58112594     1.00200
H1022       H  0.45066435  0.95398243  0.54989258     0.29900
O1023       O  0.46425245  0.96778759  0.53526524    -1.00900
H1024       H  0.04982586  0.54824808  0.54394009     0.29900
O1025       O  0.03475104  0.53477937  0.53081142    -1.03500
O1026       O  0.49090831  0.90560837  0.94287993    -0.80700
O1027       O  0.50078543  0.59793554  0.94377602    -0.80200
O1028       O  0.39866628  0.94933172  0.00101979    -0.78700
O1029       O  0.09324968  0.94371566  0.99339721    -0.82000
O1030       O  0.09605721  0.55433859  0.99173544    -0.79900
O1031       O  0.40201845  0.55780389  0.00648265    -0.78500
O1032       O  0.43934642  0.00633085  0.90475743    -0.80000
O1033       O  0.04854019  0.00130524  0.89935892    -0.82000
O1034       O  0.40017630  0.00558756  0.94741487    -0.78700
O1035       O  0.09044223  0.00014860  0.93877440    -0.81400
O1036       O  0.43870146  0.90795051  0.00207918    -0.77100
O1037       O  0.44369821  0.59770944  0.00327000    -0.77200
O1038       O  0.05564220  0.59523073  0.99555383    -0.76800
O1039       O  0.05115348  0.90427375  0.99674566    -0.80300
O1040       O  0.49247072  0.94680225  0.90273106    -0.79700
O1041       O  0.49772670  0.55742787  0.90279096    -0.78000
Eu1042     Eu  0.49574539  0.93319819  0.99823125     2.39800
Eu1043     Eu  0.49943761  0.56942393  0.99852848     2.39600
Eu1044     Eu  0.42931727  0.00302926  0.00226540     2.38400
Eu1045     Eu  0.06679181  0.99980323  0.99600174     2.39900
Eu1046     Eu  0.49509248  0.00222526  0.93064791     2.39800
O1047       O  0.03155656  0.53472114  0.96303558    -0.92500
O1048       O  0.46106805  0.96845657  0.96583412    -0.91400
C1049       C  0.49098899  0.91576894  0.91200779     1.02700
C1050       C  0.49990812  0.58824962  0.91275407     1.01400
C1051       C  0.40774638  0.91830648  0.00203402     1.00800
C1052       C  0.08259085  0.91305041  0.99468368     1.02800
C1053       C  0.08659825  0.58530840  0.99283427     1.01700
C1054       C  0.41242357  0.58849576  0.00617155     1.00600
C1055       C  0.40872926  0.00683327  0.91591453     1.00700
C1056       C  0.07985222  0.00059898  0.90801120     1.03300
H1057       H  0.44843032  0.55110189  0.95245159     0.30600
O1058       O  0.46269522  0.53654940  0.96567161    -1.04600
H1059       H  0.04309184  0.95230823  0.94811738     0.32700
O1060       O  0.03002522  0.96665608  0.96301521    -1.07200
N1061       N  0.24641280  0.49091541  0.79939502    -0.36200
N1062       N  0.19759243  0.48666470  0.74495069    -0.56800
N1063       N  0.25123909  0.48721907  0.69645135    -0.36200
N1064       N  0.29992580  0.49373836  0.75116531    -0.56800
C1065       C  0.21774987  0.50122037  0.81465988     0.27400
C1066       C  0.27244038  0.50198052  0.81835133     0.27400
C1067       C  0.22435396  0.49267222  0.67634690     0.27400
C1068       C  0.27868131  0.49915838  0.68012174     0.27400
C1069       C  0.17741738  0.48068507  0.77186364     0.36000
C1070       C  0.18030958  0.47657527  0.71734248     0.36000
C1071       C  0.31806006  0.48714915  0.77911849     0.36000
C1072       C  0.32075461  0.48842605  0.72472832     0.36000
C1073       C  0.22566485  0.51986525  0.84322174    -0.21500
C1074       C  0.26036201  0.52013871  0.84567417    -0.21500
C1075       C  0.23479717  0.50845030  0.64695443    -0.21500
C1076       C  0.26925317  0.51233955  0.64924519    -0.21500
C1077       C  0.14721483  0.46647390  0.76135261    -0.22600
C1078       C  0.14900505  0.46399113  0.72677436    -0.22600
C1079       C  0.35050906  0.47724507  0.77035464    -0.22600
C1080       C  0.35229788  0.47835362  0.73576477    -0.22600
C1081       C  0.18500005  0.49086528  0.80522281    -0.17900
C1082       C  0.30654337  0.49416645  0.81211847    -0.17900
C1083       C  0.31221383  0.49533157  0.69108269    -0.17900
C1084       C  0.19097307  0.48260975  0.68374635    -0.17900
H1085       H  0.20823028  0.53119594  0.86099107     0.15000
H1086       H  0.27498375  0.53192235  0.86546925     0.15000
H1087       H  0.21930662  0.51611643  0.62593042     0.15000
H1088       H  0.28557551  0.52323902  0.63021230     0.15000
H1089       H  0.12585646  0.45924013  0.77685950     0.13300
H1090       H  0.12925544  0.45471733  0.71037825     0.13300
H1091       H  0.37101500  0.47087140  0.78710655     0.13300
H1092       H  0.37437397  0.47290481  0.72051180     0.13300
H1093       H  0.24801414  0.47356182  0.77973521     0.26500
H1094       H  0.25142852  0.47269041  0.71823205     0.26500
N1095       N  0.24683081  0.80206862  0.00445546    -0.36200
N1096       N  0.19634400  0.75001079  0.99754357    -0.56800
N1097       N  0.24912437  0.69992264  0.99990713    -0.36200
N1098       N  0.29953303  0.75199690  0.00996629    -0.56800
C1099       C  0.21820364  0.81986154  0.00971664     0.27400
C1100       C  0.27295250  0.82113616  0.01523731     0.27400
C1101       C  0.22126403  0.68063139  0.00385587     0.27400
C1102       C  0.27586976  0.68149186  0.00984891     0.27400
C1103       C  0.17752587  0.77696696  0.98960845     0.36000
C1104       C  0.17898559  0.72290128  0.98682382     0.36000
C1105       C  0.31899449  0.77969722  0.00665651     0.36000
C1106       C  0.32008173  0.72545937  0.00470409     0.36000
C1107       C  0.22624237  0.85067082  0.02394837    -0.21500
C1108       C  0.26085230  0.85153035  0.02729107    -0.21500
C1109       C  0.23040478  0.64953588  0.01641045    -0.21500
C1110       C  0.26495968  0.64996142  0.01985853    -0.21500
C1111       C  0.14811094  0.76702959  0.97351058    -0.22600
C1112       C  0.14905483  0.73260838  0.97171623    -0.22600
C1113       C  0.35207571  0.77068727  0.99947480    -0.22600
C1114       C  0.35285389  0.73628895  0.99872370    -0.22600
C1115       C  0.18545948  0.81002451  0.99941661    -0.17900
C1116       C  0.30754145  0.81286866  0.01180926    -0.17900
C1117       C  0.30998141  0.69160088  0.00737978    -0.17900
C1118       C  0.18826142  0.68962715  0.99405459    -0.17900
H1119       H  0.20903509  0.87071546  0.03060506     0.15000
H1120       H  0.27551000  0.87232195  0.03708189     0.15000
H1121       H  0.21400307  0.62846066  0.02187704     0.15000
H1122       H  0.28026635  0.62924957  0.02842825     0.15000
H1123       H  0.12784731  0.78287065  0.96465243     0.13300
H1124       H  0.12961592  0.71651593  0.96131983     0.13300
H1125       H  0.37354548  0.78711381  0.99561278     0.13300
H1126       H  0.37503583  0.72103218  0.99435221     0.13300
H1127       H  0.24888421  0.78017828  0.99031821     0.26500
H1128       H  0.25034001  0.72267596  0.98722949     0.26500
C1129       C  0.33072076  0.86383676  0.98445963    -0.11900
C1130       C  0.33253858  0.84076448  0.01092704     0.05100
C1131       C  0.35693053  0.84571650  0.53849091    -0.07200
C1132       C  0.38085140  0.87134603  0.53424789    -0.07900
C1133       C  0.38097758  0.89253101  0.00475757    -0.02500
C1134       C  0.35420135  0.88994298  0.98158309     0.04300
N1135       N  0.34949092  0.91417305  0.95575892     0.66900
H1136       H  0.31076218  0.86163399  0.96592951     0.15800
H1137       H  0.39951451  0.87569239  0.55341718     0.15500
N1138       N  0.35774717  0.82575076  0.56833100     0.74600
O1139       O  0.36125174  0.90836613  0.92673116    -0.38900
O1140       O  0.32532748  0.93452947  0.95892498    -0.38800
O1141       O  0.37881727  0.80216664  0.57049856    -0.39500
O1142       O  0.34350758  0.83648507  0.59476004    -0.39600
C1143       C  0.37356107  0.62873263  0.47870680    -0.11900
C1144       C  0.38638316  0.61500724  0.00742048     0.05100
C1145       C  0.37168097  0.62613858  0.03805825    -0.07200
C1146       C  0.34752912  0.65178790  0.03767384    -0.07900
C1147       C  0.33639851  0.66530173  0.00717715    -0.02500
C1148       C  0.34799123  0.65301608  0.47943485     0.04300
N1149       N  0.33339585  0.66430507  0.44857151     0.66900
H1150       H  0.38307607  0.61987954  0.45460588     0.15800
H1151       H  0.33653069  0.66044613  0.06121396     0.15500
N1152       N  0.37948407  0.61068861  0.06954635     0.74600
O1153       O  0.34382985  0.69114095  0.43530460    -0.38900
O1154       O  0.30939644  0.65346122  0.93420431    -0.38800
O1155       O  0.39568115  0.62568101  0.59338538    -0.39500
O1156       O  0.36205223  0.58580109  0.07880098    -0.39600
C1157       C  0.10456517  0.85919166  0.52149344    -0.11900
C1158       C  0.10827470  0.88593257  0.99471242     0.05100
C1159       C  0.13571223  0.88560227  0.97176209    -0.07200
C1160       C  0.16017632  0.86047229  0.97351570    -0.07900
C1161       C  0.15847167  0.83576091  0.99826749    -0.02500
C1162       C  0.12990330  0.83475732  0.52450173     0.04300
N1163       N  0.12771881  0.81037413  0.55076567     0.66900
H1164       H  0.08325401  0.85874858  0.53875767     0.15800
H1165       H  0.18094315  0.86044816  0.95558433     0.15500
N1166       N  0.13958787  0.91066593  0.94655332     0.74600
O1167       O  0.14706943  0.81254436  0.57590004    -0.38900
O1168       O  0.11334241  0.78542938  0.04487210    -0.38800
O1169       O  0.16307126  0.93290905  0.45645987    -0.39500
O1170       O  0.12812062  0.90490713  0.91744625    -0.39600
C1171       C  0.11031732  0.63743975  0.51733836    -0.11900
C1172       C  0.11293853  0.61168667  0.99224831     0.05100
C1173       C  0.14058277  0.61098984  0.96950490    -0.07200
C1174       C  0.16425966  0.63712129  0.96975013    -0.07900
C1175       C  0.16183165  0.66322963  0.99328393    -0.02500
C1176       C  0.13493873  0.66256118  0.51937512     0.04300
N1177       N  0.13345065  0.68658416  0.54618789     0.66900
H1178       H  0.08961613  0.63752589  0.53534502     0.15800
H1179       H  0.18513922  0.63667406  0.95196716     0.15500
N1180       N  0.14519227  0.58414602  0.94599890     0.74600
O1181       O  0.11322385  0.71250709  0.04032453    -0.38900
O1182       O  0.15469373  0.68531863  0.56980035    -0.38800
O1183       O  0.13959871  0.58943072  0.91519285    -0.39500
O1184       O  0.16558276  0.56110660  0.45452994    -0.39600
C1185       C  0.35383873  0.48301209  0.89485452    -0.11900
C1186       C  0.38140694  0.00722890  0.89069012     0.05100
C1187       C  0.38394226  0.02516848  0.86019319    -0.07200
C1188       C  0.35868866  0.02200709  0.83589909    -0.07900
C1189       C  0.33155022  0.49755277  0.83980659    -0.02500
C1190       C  0.32904106  0.47917658  0.87009945     0.04300
N1191       N  0.30211480  0.45596459  0.87590914     0.66900
H1192       H  0.35206137  0.46856695  0.91767320     0.15800
H1193       H  0.36073793  0.03635571  0.81279830     0.15500
N1194       N  0.41057953  0.04855090  0.85432410     0.74600
O1195       O  0.30599248  0.42572259  0.86730027    -0.38900
O1196       O  0.27942944  0.96850639  0.90076836    -0.38800
O1197       O  0.43515709  0.54012244  0.83821453    -0.39500
O1198       O  0.40406647  0.07933223  0.85751695    -0.39600
C1199       C  0.12840774  0.51090222  0.82453236    -0.11900
C1200       C  0.15759108  0.49214348  0.83101698     0.05100
C1201       C  0.16231777  0.98027989  0.86517077    -0.07200
C1202       C  0.13703163  0.98457557  0.88927693    -0.07900
C1203       C  0.10592469  0.99900069  0.88119979    -0.02500
C1204       C  0.10224176  0.51299521  0.84831250     0.04300
N1205       N  0.07201340  0.53014826  0.83923874     0.66900
H1206       H  0.12565526  0.52357151  0.80056395     0.15800
H1207       H  0.14147536  0.97560973  0.91446002     0.15500
N1208       N  0.19203738  0.96234185  0.87461175     0.74600
O1209       O  0.07268814  0.56162371  0.83640536    -0.38900
O1210       O  0.04888975  0.51389101  0.82464206    -0.38800
O1211       O  0.21051621  0.97438506  0.89751927    -0.41100
O1212       O  0.19364197  0.93133269  0.86837123    -0.39600
C1213       C  0.14020009  0.96838151  0.60401532    -0.11900
C1214       C  0.11531329  0.49463950  0.60656455     0.05100
C1215       C  0.11465988  0.51342094  0.63674539    -0.07200
C1216       C  0.13930653  0.50861700  0.66120704    -0.07900
C1217       C  0.16494383  0.48497173  0.65678115    -0.02500
C1218       C  0.16477170  0.96290978  0.62889522     0.04300
N1219       N  0.18889979  0.93674809  0.62389588     0.66900
H1220       H  0.14014339  0.95272841  0.58161218     0.15800
H1221       H  0.13868822  0.52399438  0.68381223     0.15500
N1222       N  0.09041663  0.53913080  0.64231321     0.74600
O1223       O  0.21404677  0.94201133  0.60494494    -0.38900
O1224       O  0.18024314  0.90689529  0.63002259    -0.38800
O1225       O  0.06663712  0.53367838  0.66290644    -0.39500
O1226       O  0.09899966  0.56898837  0.63608973    -0.39600
C1227       C  0.38669324  0.02415287  0.64089231    -0.11900
C1228       C  0.38977003  0.49923047  0.61566977     0.05100
C1229       C  0.36766006  0.47150151  0.61782691    -0.07200
C1230       C  0.34292629  0.47057702  0.64291618    -0.07900
C1231       C  0.33936792  0.49717433  0.66560747    -0.02500
C1232       C  0.36117702  0.02298264  0.66554464     0.04300
N1233       N  0.35626321  0.05084580  0.68782439     0.66900
H1234       H  0.40296359  0.04600403  0.63929440     0.15800
H1235       H  0.32616923  0.44908039  0.64457530     0.15500
N1236       N  0.37034672  0.44371797  0.59517354     0.74600
O1237       O  0.37216506  0.05205182  0.71531374    -0.38900
O1238       O  0.33146580  0.57296442  0.67976075    -0.38800
O1239       O  0.38643303  0.91565597  0.60784207    -0.39500
O1240       O  0.35076874  0.44224501  0.57017887    -0.39600
C1241       C  0.46959400  0.62211789  0.87069593    -0.11900
C1242       C  0.49999679  0.61445843  0.88667050     0.05100
C1243       C  0.02947140  0.63193490  0.87776326    -0.07200
C1244       C  0.02860601  0.65560586  0.85177575    -0.07900
C1245       C  0.49785421  0.66356333  0.83557224    -0.02500
C1246       C  0.46813387  0.64633045  0.84521691     0.04300
N1247       N  0.43630906  0.65332235  0.82984939     0.66900
H1248       H  0.44675291  0.60986696  0.87897012     0.15800
H1249       H  0.05156595  0.66894852  0.84508937     0.15500
N1250       N  0.06027483  0.62701921  0.89562858     0.74600
O1251       O  0.41627049  0.67331475  0.84435490    -0.38900
O1252       O  0.42478931  0.63318615  0.80810137    -0.38800
O1253       O  0.08430508  0.61212258  0.88104724    -0.39500
O1254       O  0.06657422  0.64540054  0.92079896    -0.39600
C1255       C  0.47092136  0.83847053  0.85917214    -0.11900
C1256       C  0.49695089  0.83960091  0.83511939     0.05100
C1257       C  0.02101521  0.86619186  0.83650544    -0.07200
C1258       C  0.01763266  0.89119696  0.86116143    -0.07900
C1259       C  0.49148750  0.88996280  0.88518549    -0.02500
C1260       C  0.46826556  0.86306397  0.88432493     0.04300
N1261       N  0.44060305  0.86135981  0.90742665     0.66900
H1262       H  0.45247997  0.81833412  0.85835462     0.15800
H1263       H  0.03597681  0.91143270  0.86197499     0.15500
N1264       N  0.04895401  0.86793373  0.81361669     0.74600
O1265       O  0.41245973  0.87288522  0.89832817    -0.38900
O1266       O  0.44146735  0.84031394  0.93110023    -0.38800
O1267       O  0.04840918  0.88914169  0.79007660    -0.39500
O1268       O  0.07687322  0.85546771  0.82225171    -0.39600
C1269       C  0.02845864  0.89344650  0.63820995    -0.11900
C1270       C  0.50757390  0.88664660  0.60970787     0.05100
C1271       C  0.49208249  0.85471403  0.60683537    -0.07200
C1272       C  0.49527028  0.83126833  0.63272226    -0.07900
C1273       C  0.51520163  0.83784189  0.66099743    -0.02500
C1274       C  0.03318881  0.86915886  0.66329987     0.04300
N1275       N  0.05635516  0.87608883  0.68998199     0.66900
H1276       H  0.04143650  0.91731288  0.64051724     0.15800
H1277       H  0.48172307  0.80766462  0.63081263     0.15500
N1278       N  0.47149542  0.84588515  0.57878057     0.74600
O1279       O  0.08692496  0.86790423  0.68621158    -0.38900
O1280       O  0.04882332  0.89795123  0.71181084    -0.38800
O1281       O  0.48434318  0.82860586  0.55530897    -0.39500
O1282       O  0.44000607  0.84462945  0.58331543    -0.39600
C1283       C  0.49942256  0.67266180  0.63137646    -0.11900
C1284       C  0.51838234  0.66549191  0.66029301     0.05100
C1285       C  0.03562817  0.63417639  0.66204292    -0.07200
C1286       C  0.02874257  0.60947738  0.63780473    -0.07900
C1287       C  0.50940148  0.61657308  0.60891503    -0.02500
C1288       C  0.49644459  0.64941361  0.60502374     0.04300
N1289       N  0.48086834  0.66010129  0.57446571     0.66900
H1290       H  0.48720604  0.69682871  0.62893371     0.15800
H1291       H  0.03933188  0.58491947  0.64086028     0.15500
N1292       N  0.06041246  0.62750232  0.68731488     0.74600
O1293       O  0.44921976  0.66343720  0.57365790    -0.38900
O1294       O  0.49864116  0.67557760  0.55304844    -0.38800
O1295       O  0.05522402  0.60434778  0.70835052    -0.39500
O1296       O  0.09029522  0.63760668  0.68250226    -0.39600
N1297       N  0.49612704  0.25072070  0.30017974    -0.36200
N1298       N  0.50204151  0.30229738  0.24837297    -0.56800
N1299       N  0.51212942  0.25084839  0.19852435    -0.36200
N1300       N  0.50927273  0.19914037  0.25014131    -0.56800
C1301       C  0.50086622  0.27876138  0.31898911     0.27400
C1302       C  0.50286559  0.22401154  0.32005578     0.27400
C1303       C  0.52111490  0.27877653  0.18118511     0.27400
C1304       C  0.52549477  0.22414573  0.18211951     0.27400
C1305       C  0.48878931  0.31998704  0.27422797     0.36000
C1306       C  0.49566793  0.31992877  0.22012464     0.36000
C1307       C  0.49910750  0.17971849  0.27621417     0.36000
C1308       C  0.50748278  0.17980606  0.22212094     0.36000
C1309       C  0.51062744  0.26972609  0.35124731    -0.21500
C1310       C  0.51145028  0.23521517  0.35205462    -0.21500
C1311       C  0.54078661  0.26969452  0.15362717    -0.21500
C1312       C  0.54347926  0.23522243  0.15417287    -0.21500
C1313       C  0.47329222  0.34875075  0.26242541    -0.22600
C1314       C  0.47733494  0.34852998  0.22794474    -0.22600
C1315       C  0.49146331  0.14773494  0.26483698    -0.22600
C1316       C  0.49567527  0.14809829  0.23048765    -0.22600
C1317       C  0.49402416  0.31199958  0.30836974    -0.17900
C1318       C  0.49949669  0.18991379  0.31035580    -0.17900
C1319       C  0.51842165  0.19005642  0.18964389    -0.17900
C1320       C  0.50933553  0.31170773  0.18822821    -0.17900
H1321       H  0.51603625  0.28621547  0.37227863     0.15000
H1322       H  0.51754359  0.22023046  0.37387564     0.15000
H1323       H  0.55148441  0.28611425  0.13467987     0.15000
H1324       H  0.55651086  0.21994274  0.13565337     0.15000
H1325       H  0.46102553  0.36812064  0.27720037     0.13300
H1326       H  0.46867130  0.36768931  0.21077834     0.13300
H1327       H  0.48385447  0.12623857  0.27960224     0.13300
H1328       H  0.49098451  0.12708629  0.21384601     0.13300
H1329       H  0.48539927  0.24972076  0.27628489     0.26500
H1330       H  0.49404319  0.24963408  0.21762582     0.26500
O1331       O  0.00316638  0.09899548  0.05310511    -0.79700
O1332       O  0.00010544  0.40434244  0.05219815    -0.81300
O1333       O  0.94729402  0.00149248  0.09872906    -0.78300
O1334       O  0.55771272  0.99976941  0.09304367    -0.76700
O1335       O  0.59674582  0.99665973  0.05034897    -0.78500
O1336       O  0.90491405  0.49988324  0.05900359    -0.79400
O1337       O  0.00457698  0.44474975  0.09302755    -0.80800
O1338       O  0.00502818  0.05854250  0.09381135    -0.81000
Eu1339     Eu  0.00126221  0.00167834  0.06772247     2.39200
O1340       O  0.53254409  0.46666176  0.03059896    -0.88600
O1341       O  0.96607804  0.03628405  0.03517539    -0.92200
C1342       C  0.00526003  0.08958088  0.08400851     1.02500
C1343       C  0.00347850  0.41366961  0.08313552     1.02400
C1344       C  0.91589630  0.99979282  0.09015717     1.02300
C1345       C  0.58833700  0.99747291  0.08191627     1.00200
H1346       H  0.95134228  0.45400937  0.04915948     0.29900
O1347       O  0.96485321  0.46799445  0.03437749    -1.00900
H1348       H  0.55010906  0.04826008  0.04503882     0.29900
O1349       O  0.53474700  0.03464789  0.03165761    -1.03500
O1350       O  0.99120252  0.40538340  0.44232748    -0.80700
O1351       O  0.00221068  0.09774535  0.44494267    -0.80200
O1352       O  0.89883045  0.44892522  0.50041929    -0.78700
O1353       O  0.59296162  0.44305193  0.49308057    -0.82000
O1354       O  0.59705820  0.05248170  0.49333982    -0.79900
O1355       O  0.90219550  0.05814038  0.50816246    -0.78500
O1356       O  0.93953630  0.50495265  0.40386100    -0.80000
O1357       O  0.54844960  0.50072537  0.39850473    -0.82000
O1358       O  0.90032320  0.50443443  0.44645595    -0.78700
O1359       O  0.59048669  0.49874656  0.43777015    -0.81400
O1360       O  0.93890394  0.40758320  0.50156416    -0.77100
O1361       O  0.94405991  0.09784845  0.50461407    -0.77200
O1362       O  0.55708971  0.09382216  0.49712385    -0.76800
O1363       O  0.55077331  0.40374755  0.49645031    -0.80300
O1364       O  0.99243842  0.44648248  0.40207095    -0.79700
O1365       O  0.99883494  0.05722133  0.40399837    -0.78000
Eu1366     Eu  0.99600865  0.43296066  0.49774986     2.39800
Eu1367     Eu  0.99979706  0.06933382  0.49980538     2.39600
Eu1368     Eu  0.92940831  0.50262888  0.50139582     2.38400
Eu1369     Eu  0.56654157  0.49922191  0.49499227     2.39900
Eu1370     Eu  0.99530097  0.50191462  0.42982557     2.39800
O1371       O  0.53199516  0.03380542  0.46431646    -0.92500
O1372       O  0.96144664  0.46814933  0.46519627    -0.91400
C1373       C  0.99096749  0.41547168  0.41141787     1.02700
C1374       C  0.00148108  0.08802710  0.41391306     1.01400
C1375       C  0.90791942  0.41791438  0.50151758     1.00800
C1376       C  0.58225888  0.41240629  0.49453676     1.02800
C1377       C  0.58795455  0.08357116  0.49452829     1.01700
C1378       C  0.91274173  0.08877591  0.50775821     1.00600
C1379       C  0.90889300  0.50532813  0.41494203     1.00700
C1380       C  0.57978235  0.49941460  0.40703826     1.03300
H1381       H  0.94878625  0.05125212  0.45379677     0.30600
O1382       O  0.96283413  0.03663283  0.46697348    -1.04600
H1383       H  0.54262064  0.45186423  0.44729528     0.32700
O1384       O  0.52974057  0.46620207  0.46199614    -1.07200
N1385       N  0.74623513  0.99117783  0.30045613    -0.36200
N1386       N  0.69779373  0.98708065  0.24570961    -0.56800
N1387       N  0.75185806  0.98603596  0.19761543    -0.36200
N1388       N  0.80008454  0.99204150  0.25269453    -0.56800
C1389       C  0.71754402  0.00223155  0.31508899     0.27400
C1390       C  0.77221088  0.00270300  0.31920954     0.27400
C1391       C  0.72525210  0.99245936  0.17742821     0.27400
C1392       C  0.77972853  0.99741423  0.18160414     0.27400
C1393       C  0.67754018  0.98094289  0.27254331     0.36000
C1394       C  0.68076438  0.97681365  0.21800382     0.36000
C1395       C  0.81774705  0.98557084  0.28096458     0.36000
C1396       C  0.82095243  0.98551416  0.22657589     0.36000
C1397       C  0.72536419  0.02193880  0.34294144    -0.21500
C1398       C  0.76006600  0.02203959  0.34567808    -0.21500
C1399       C  0.73629238  0.00841785  0.14835889    -0.21500
C1400       C  0.77085415  0.01129232  0.15087284    -0.21500
C1401       C  0.64757783  0.96633412  0.26187756    -0.22600
C1402       C  0.64955094  0.96390661  0.22728549    -0.22600
C1403       C  0.84988585  0.97432069  0.27273063    -0.22600
C1404       C  0.85201153  0.97458833  0.23811724    -0.22600
C1405       C  0.68488882  0.99140793  0.30590035    -0.17900
C1406       C  0.80625064  0.99414047  0.31360295    -0.17900
C1407       C  0.81305120  0.99258104  0.19281834    -0.17900
C1408       C  0.69163011  0.98292714  0.18446636    -0.17900
H1409       H  0.70784554  0.03400081  0.36013123     0.15000
H1410       H  0.77462825  0.03442050  0.36514733     0.15000
H1411       H  0.72112171  0.01683400  0.12739570     0.15000
H1412       H  0.78758924  0.02203313  0.13210614     0.15000
H1413       H  0.62624023  0.95880872  0.27726682     0.13300
H1414       H  0.63000411  0.95439082  0.21078661     0.13300
H1415       H  0.87003024  0.96772527  0.28982778     0.13300
H1416       H  0.87404191  0.96819201  0.22317816     0.13300
H1417       H  0.74779712  0.97305461  0.28149304     0.26500
H1418       H  0.75151060  0.97126818  0.21924794     0.26500
N1419       N  0.74650180  0.30174848  0.50586317    -0.36200
N1420       N  0.69647997  0.24916026  0.49858589    -0.56800
N1421       N  0.74960706  0.19966863  0.50190245    -0.36200
N1422       N  0.79953979  0.25224568  0.51226245    -0.56800
C1423       C  0.71766798  0.31926570  0.51093010     0.27400
C1424       C  0.77241168  0.32113545  0.51663045     0.27400
C1425       C  0.72189946  0.18012669  0.50562634     0.27400
C1426       C  0.77635838  0.18164321  0.51252167     0.27400
C1427       C  0.67747064  0.27596241  0.49054229     0.36000
C1428       C  0.67946005  0.22185580  0.48776591     0.36000
C1429       C  0.81875964  0.28004214  0.50843583     0.36000
C1430       C  0.82023891  0.22582027  0.50704319     0.36000
C1431       C  0.72537132  0.35020185  0.52510101    -0.21500
C1432       C  0.75997770  0.35144685  0.52851770    -0.21500
C1433       C  0.73113936  0.14931020  0.51878540    -0.21500
C1434       C  0.76561723  0.15015679  0.52282826    -0.21500
C1435       C  0.64826663  0.26572304  0.47423866    -0.22600
C1436       C  0.64954092  0.23128687  0.47246612    -0.22600
C1437       C  0.85183208  0.27120276  0.50098194    -0.22600
C1438       C  0.85285656  0.23680853  0.50055906    -0.22600
C1439       C  0.68505956  0.30913176  0.50038465    -0.17900
C1440       C  0.80708823  0.31316960  0.51330785    -0.17900
C1441       C  0.81038988  0.19194111  0.51008516    -0.17900
C1442       C  0.68898932  0.18865811  0.49516783    -0.17900
H1443       H  0.70794750  0.37010582  0.53161943     0.15000
H1444       H  0.77440978  0.37242426  0.53824185     0.15000
H1445       H  0.71486873  0.12813740  0.52425852     0.15000
H1446       H  0.78101003  0.12972572  0.53190571     0.15000
H1447       H  0.62791029  0.28136974  0.46524615     0.13300
H1448       H  0.63031229  0.21500143  0.46198256     0.13300
H1449       H  0.87312704  0.28774486  0.49667381     0.13300
H1450       H  0.87507602  0.22165409  0.49601160     0.13300
H1451       H  0.74882893  0.27982285  0.49182018     0.26500
H1452       H  0.75082108  0.22223902  0.48888673     0.26500
C1453       C  0.83025474  0.36378709  0.48519845    -0.11900
C1454       C  0.83196584  0.34118633  0.51208362     0.05100
C1455       C  0.85812274  0.34557157  0.03971950    -0.07200
C1456       C  0.88242306  0.37077867  0.03492975    -0.07900
C1457       C  0.88107422  0.39221445  0.50457560    -0.02500
C1458       C  0.85408571  0.38952550  0.48163592     0.04300
N1459       N  0.84941179  0.41340955  0.45547474     0.66900
H1460       H  0.81017217  0.36144808  0.46681989     0.15800
H1461       H  0.90118036  0.37516554  0.05411552     0.15500
N1462       N  0.85868944  0.32627815  0.07000436     0.74600
O1463       O  0.86074367  0.40701127  0.42639560    -0.38900
O1464       O  0.82552334  0.43408391  0.45860083    -0.38800
O1465       O  0.87986083  0.30286874  0.07291925    -0.39500
O1466       O  0.84440117  0.33774138  0.09609569    -0.39600
C1467       C  0.87375784  0.12887568  0.98040335    -0.11900
C1468       C  0.88676760  0.11536025  0.50929452     0.05100
C1469       C  0.87247971  0.12656349  0.54011510    -0.07200
C1470       C  0.84856493  0.15244358  0.54002399    -0.07900
C1471       C  0.83690988  0.16577094  0.50965051    -0.02500
C1472       C  0.84816560  0.15310931  0.98127003     0.04300
N1473       N  0.83364303  0.16465839  0.95046790     0.66900
H1474       H  0.88338697  0.12027572  0.95625534     0.15800
H1475       H  0.83788951  0.16117725  0.56368308     0.15500
N1476       N  0.87989389  0.11049160  0.57139121     0.74600
O1477       O  0.84412717  0.19159229  0.93744230    -0.38900
O1478       O  0.80792776  0.15174884  0.43772226    -0.38800
O1479       O  0.89534145  0.12443947  0.09513091    -0.39500
O1480       O  0.86306168  0.08477509  0.57937529    -0.39600
C1481       C  0.60602319  0.36010240  0.02082903    -0.11900
C1482       C  0.60793416  0.38520061  0.49488493     0.05100
C1483       C  0.63583161  0.38500546  0.47248292    -0.07200
C1484       C  0.66013041  0.35972139  0.47435739    -0.07900
C1485       C  0.65794340  0.33476661  0.49882989    -0.02500
C1486       C  0.63136785  0.33563849  0.02375983     0.04300
N1487       N  0.62979574  0.31187997  0.05062971     0.66900
H1488       H  0.58506001  0.36000642  0.03851718     0.15800
H1489       H  0.68121617  0.35982864  0.45680044     0.15500
N1490       N  0.64027188  0.41029371  0.44760719     0.74600
O1491       O  0.64910628  0.31522683  0.07567037    -0.38900
O1492       O  0.61263604  0.28413205  0.54463747    -0.38800
O1493       O  0.66359460  0.43250032  0.95360298    -0.39500
O1494       O  0.62952570  0.40472247  0.41819188    -0.39600
C1495       C  0.61100889  0.13748755  0.01746283    -0.11900
C1496       C  0.61451601  0.10978986  0.49411078     0.05100
C1497       C  0.64217045  0.10913482  0.47136993    -0.07200
C1498       C  0.66555250  0.13557718  0.47127339    -0.07900
C1499       C  0.66282609  0.16195660  0.49450389    -0.02500
C1500       C  0.63557465  0.16271734  0.01906026     0.04300
N1501       N  0.63450262  0.18665715  0.04595235     0.66900
H1502       H  0.59047996  0.13767003  0.03566144     0.15800
H1503       H  0.68642000  0.13517564  0.45347684     0.15500
N1504       N  0.64706494  0.08203173  0.44822442     0.74600
O1505       O  0.61458716  0.21110441  0.54162189    -0.38900
O1506       O  0.65557212  0.18474115  0.06967182    -0.38800
O1507       O  0.64085999  0.08663224  0.41741780    -0.39500
O1508       O  0.66590065  0.06024283  0.95613665    -0.39600
C1509       C  0.85264244  0.98587648  0.39724181    -0.11900
C1510       C  0.88156753  0.50539571  0.38964926     0.05100
C1511       C  0.88448554  0.52223678  0.35855114    -0.07200
C1512       C  0.85883252  0.51943782  0.33467603    -0.07900
C1513       C  0.83120888  0.99817095  0.34129411    -0.02500
C1514       C  0.82788703  0.98155697  0.37253158     0.04300
N1515       N  0.80031325  0.95939045  0.37932469     0.66900
H1516       H  0.85003187  0.97298019  0.42090979     0.15800
H1517       H  0.86119476  0.53318089  0.31123148     0.15500
N1518       N  0.91216897  0.54399736  0.35137665     0.74600
O1519       O  0.80298571  0.92889524  0.37116313    -0.38900
O1520       O  0.77869640  0.47008222  0.40182823    -0.38800
O1521       O  0.93685401  0.03428103  0.33713103    -0.39500
O1522       O  0.90678273  0.57513206  0.35170275    -0.39600
C1523       C  0.62747885  0.00960160  0.32496895    -0.11900
C1524       C  0.65753652  0.99236993  0.33185446     0.05100
C1525       C  0.66107427  0.47673631  0.36295965    -0.07200
C1526       C  0.63610094  0.48126488  0.38739767    -0.07900
C1527       C  0.60563396  0.49733057  0.38002673    -0.02500
C1528       C  0.60131030  0.01123274  0.34879584     0.04300
N1529       N  0.57023868  0.02656871  0.33927836     0.66900
H1530       H  0.62405411  0.02147204  0.30068074     0.15800
H1531       H  0.64019874  0.47125391  0.41221909     0.15500
N1532       N  0.69000314  0.45707845  0.37136436     0.74600
O1533       O  0.56873384  0.05807789  0.33730151    -0.38900
O1534       O  0.54845009  0.00911243  0.32403928    -0.38800
O1535       O  0.70946712  0.46741180  0.39428274    -0.41100
O1536       O  0.69015478  0.42630995  0.36381882    -0.39600
C1537       C  0.64087957  0.47079800  0.10231562    -0.11900
C1538       C  0.61561977  0.99470740  0.10732740     0.05100
C1539       C  0.61466254  0.01304237  0.13778801    -0.07200
C1540       C  0.63952819  0.00846117  0.16210458    -0.07900
C1541       C  0.66575082  0.98550133  0.15728752    -0.02500
C1542       C  0.66545372  0.46565415  0.12721627     0.04300
N1543       N  0.68923445  0.43908484  0.12282706     0.66900
H1544       H  0.64061237  0.45466215  0.08026072     0.15800
H1545       H  0.63858133  0.02347899  0.18494026     0.15500
N1546       N  0.59000011  0.03829011  0.14370457     0.74600
O1547       O  0.71479822  0.44380996  0.10429536    -0.38900
O1548       O  0.68003964  0.40942416  0.12912880    -0.38800
O1549       O  0.56629821  0.03223824  0.16421776    -0.39500
O1550       O  0.59809884  0.06834497  0.13782269    -0.39600
C1551       C  0.88736754  0.52468931  0.14013616    -0.11900
C1552       C  0.89059848  0.99731681  0.11734790     0.05100
C1553       C  0.86864707  0.96944000  0.11934176    -0.07200
C1554       C  0.84398213  0.96815966  0.14452331    -0.07900
C1555       C  0.84058363  0.99436679  0.16771097    -0.02500
C1556       C  0.86193572  0.52386665  0.16488487     0.04300
N1557       N  0.85752643  0.55176153  0.18722383     0.66900
H1558       H  0.90392150  0.54632575  0.13847398     0.15800
H1559       H  0.82716192  0.94669178  0.14587052     0.15500
N1560       N  0.87156694  0.94177323  0.09656280     0.74600
O1561       O  0.87324773  0.55248038  0.21483175    -0.38900
O1562       O  0.83384626  0.06976202  0.18461278    -0.38800
O1563       O  0.88607792  0.41625127  0.10742989    -0.39500
O1564       O  0.85185251  0.94009908  0.07169089    -0.39600
C1565       C  0.97146509  0.12198779  0.37182277    -0.11900
C1566       C  0.00186946  0.11419916  0.38774714     0.05100
C1567       C  0.53147399  0.13150828  0.37840714    -0.07200
C1568       C  0.53023662  0.15554913  0.35270419    -0.07900
C1569       C  0.99977365  0.16341519  0.33667668    -0.02500
C1570       C  0.97004969  0.14622349  0.34637833     0.04300
N1571       N  0.93820635  0.15332840  0.33111262     0.66900
H1572       H  0.94853308  0.10978753  0.38006579     0.15800
H1573       H  0.55320615  0.16854804  0.34540195     0.15500
N1574       N  0.56279732  0.12559833  0.39507762     0.74600
O1575       O  0.91801400  0.17286924  0.34602477    -0.38900
O1576       O  0.92684759  0.13357595  0.30893242    -0.38800
O1577       O  0.58574486  0.10981248  0.37968550    -0.39500
O1578       O  0.57065129  0.14372077  0.41999693    -0.39600
C1579       C  0.97061174  0.33725622  0.36002076    -0.11900
C1580       C  0.99481562  0.33940084  0.33421088     0.05100
C1581       C  0.51420359  0.36754633  0.33265617    -0.07200
C1582       C  0.51224061  0.39241424  0.35759759    -0.07900
C1583       C  0.99073545  0.38963624  0.38457463    -0.02500
C1584       C  0.96867814  0.36177223  0.38530308     0.04300
N1585       N  0.94292445  0.35882505  0.41039606     0.66900
H1586       H  0.95312179  0.31629184  0.36057649     0.15800
H1587       H  0.52946761  0.41357618  0.35641783     0.15500
N1588       N  0.53924612  0.37077865  0.30681034     0.74600
O1589       O  0.91372938  0.36936398  0.40364972    -0.38900
O1590       O  0.94644472  0.33771062  0.43374094    -0.38800
O1591       O  0.53542029  0.39281693  0.28441833    -0.39500
O1592       O  0.56832992  0.35889950  0.31170753    -0.39600
C1593       C  0.52109678  0.39422361  0.14003016    -0.11900
C1594       C  0.00661818  0.38680631  0.10911349     0.05100
C1595       C  0.99384052  0.35385048  0.10428078    -0.07200
C1596       C  0.99536312  0.33039425  0.13040120    -0.07900
C1597       C  0.01174755  0.33773122  0.16075953    -0.02500
C1598       C  0.52427796  0.36994460  0.16535023     0.04300
N1599       N  0.54335116  0.37825027  0.19472625     0.66900
H1600       H  0.53180913  0.41890681  0.14432590     0.15800
H1601       H  0.98385492  0.30595398  0.12672961     0.15500
N1602       N  0.97934876  0.34329207  0.07310782     0.74600
O1603       O  0.57440226  0.37114885  0.19523978    -0.38900
O1604       O  0.53243697  0.40082483  0.21426119    -0.38800
O1605       O  0.99750109  0.32700684  0.05259899    -0.39500
O1606       O  0.94771283  0.34033569  0.07133403    -0.39600
C1607       C  0.99944567  0.17228357  0.13241486    -0.11900
C1608       C  0.01876124  0.16519495  0.16110625     0.05100
C1609       C  0.53494229  0.13364348  0.16340523    -0.07200
C1610       C  0.52810084  0.10892705  0.13918765    -0.07900
C1611       C  0.00935513  0.11624754  0.10996331    -0.02500
C1612       C  0.99622363  0.14900590  0.10616472     0.04300
N1613       N  0.98021200  0.15957063  0.07579300     0.66900
H1614       H  0.98707528  0.19638524  0.13008890     0.15800
H1615       H  0.53860334  0.08432083  0.14234635     0.15500
N1616       N  0.55987889  0.12706878  0.18855680     0.74600
O1617       O  0.94853687  0.16274428  0.07537063    -0.38900
O1618       O  0.99764425  0.17507426  0.05412108    -0.38800
O1619       O  0.55497093  0.10376251  0.20948892    -0.39500
O1620       O  0.58968835  0.13729702  0.18355350    -0.39600
N1621       N  0.50063372  0.25125592  0.80010428    -0.36200
N1622       N  0.50758842  0.30318613  0.74868508    -0.56800
N1623       N  0.51545229  0.25165915  0.69831975    -0.36200
N1624       N  0.51163553  0.19968888  0.74963806    -0.56800
C1625       C  0.50593856  0.27901448  0.81914296     0.27400
C1626       C  0.50670280  0.22426666  0.81979916     0.27400
C1627       C  0.52462798  0.27944836  0.68083626     0.27400
C1628       C  0.52741208  0.22466867  0.68127647     0.27400
C1629       C  0.49510210  0.32108006  0.77477913     0.36000
C1630       C  0.50164494  0.32133089  0.72067096     0.36000
C1631       C  0.50142193  0.18032702  0.77573756     0.36000
C1632       C  0.50925403  0.18049850  0.72157328     0.36000
C1633       C  0.51536182  0.26956954  0.85137030    -0.21500
C1634       C  0.51552802  0.23503887  0.85189035    -0.21500
C1635       C  0.54289049  0.26998172  0.65246668    -0.21500
C1636       C  0.54462928  0.23544023  0.65273099    -0.21500
C1637       C  0.48070944  0.35057004  0.76338384    -0.22600
C1638       C  0.48454702  0.35056773  0.72891514    -0.22600
C1639       C  0.49310586  0.14852129  0.76432593    -0.22600
C1640       C  0.49708114  0.14892141  0.72994712    -0.22600
C1641       C  0.49974939  0.31241446  0.80882057    -0.17900
C1642       C  0.50236150  0.19034244  0.80991463    -0.17900
C1643       C  0.51996041  0.19066474  0.68899436    -0.17900
C1644       C  0.51414081  0.31270334  0.68842615    -0.17900
H1645       H  0.52090916  0.28583953  0.87254384     0.15000
H1646       H  0.52122330  0.21974317  0.87360508     0.15000
H1647       H  0.55327387  0.28623210  0.63319951     0.15000
H1648       H  0.55655551  0.21994325  0.63366118     0.15000
H1649       H  0.46917151  0.37019624  0.77840297     0.13300
H1650       H  0.47638837  0.37017733  0.71201700     0.13300
H1651       H  0.48524029  0.12711861  0.77910882     0.13300
H1652       H  0.49203708  0.12801610  0.71326327     0.13300
H1653       H  0.48980830  0.25071906  0.77624864     0.26500
H1654       H  0.49807045  0.25086423  0.71806305     0.26500
O1655       O  0.00391501  0.09869355  0.55343502    -0.79700
O1656       O  0.00001008  0.40435110  0.55228318    -0.81300
O1657       O  0.94721765  0.00153495  0.59939368    -0.78300
O1658       O  0.55766215  0.99892929  0.59367943    -0.76700
O1659       O  0.59669099  0.99529105  0.55101066    -0.78500
O1660       O  0.90474527  0.49978850  0.55847169    -0.79400
O1661       O  0.00475796  0.44494609  0.59293470    -0.80800
O1662       O  0.00577632  0.05843195  0.59433356    -0.81000
Eu1663     Eu  0.00117806  0.00139674  0.56837859     2.39200
O1664       O  0.53210139  0.46664829  0.53045692    -0.88600
O1665       O  0.96610510  0.03609233  0.53574167    -0.92200
C1666       C  0.00620606  0.08944025  0.58436182     1.02500
C1667       C  0.00372564  0.41385916  0.58317651     1.02400
C1668       C  0.91581988  0.00006450  0.59078559     1.02300
C1669       C  0.58826002  0.99622340  0.58257672     1.00200
H1670       H  0.95106252  0.45401378  0.54873851     0.29900
O1671       O  0.96453682  0.46788952  0.53411226    -1.00900
H1672       H  0.55041358  0.04729931  0.54533860     0.29900
O1673       O  0.53520014  0.03396087  0.53217409    -1.03500
O1674       O  0.99222226  0.40523532  0.94267185    -0.80700
O1675       O  0.00229423  0.09805863  0.94429672    -0.80200
O1676       O  0.89911062  0.44839665  0.00163596    -0.78700
O1677       O  0.59328971  0.44327481  0.99386717    -0.82000
O1678       O  0.59650491  0.05379143  0.99273797    -0.79900
O1679       O  0.90193162  0.05782284  0.00840023    -0.78500
O1680       O  0.93946491  0.50412879  0.90427202    -0.80000
O1681       O  0.54888908  0.50156855  0.89871722    -0.82000
O1682       O  0.90015798  0.50344207  0.94681922    -0.78700
O1683       O  0.59095394  0.49919521  0.93794684    -0.81400
O1684       O  0.93942057  0.40726624  0.00243024    -0.77100
O1685       O  0.94343606  0.09785932  0.00445752    -0.77200
O1686       O  0.55631957  0.09490720  0.99682161    -0.76800
O1687       O  0.55125356  0.40382242  0.99729517    -0.80300
O1688       O  0.99357705  0.44624133  0.90231887    -0.79700
O1689       O  0.99971525  0.05744975  0.90337429    -0.78000
Eu1690     Eu  0.99630644  0.43305780  0.99800510     2.39800
Eu1691     Eu  0.99944126  0.06983295  0.99928751     2.39600
Eu1692     Eu  0.92935568  0.50240200  0.00177509     2.38400
Eu1693     Eu  0.56685097  0.49941135  0.99513134     2.39900
Eu1694     Eu  0.99534096  0.50167722  0.93007099     2.39800
O1695       O  0.53150766  0.03464405  0.96400166    -0.92500
O1696       O  0.96143617  0.46793693  0.96547105    -0.91400
C1697       C  0.99241026  0.41525623  0.91174569     1.02700
C1698       C  0.00223312  0.08825533  0.91327249     1.01400
C1699       C  0.90838390  0.41742617  0.00282041     1.00800
C1700       C  0.58270875  0.41260688  0.99557379     1.02800
C1701       C  0.58723874  0.08482743  0.99408950     1.01700
C1702       C  0.91223334  0.08851808  0.00801901     1.00600
C1703       C  0.90880462  0.50425764  0.91531730     1.00700
C1704       C  0.58024339  0.50022128  0.90722496     1.03300
H1705       H  0.94853920  0.05175869  0.95321416     0.30600
O1706       O  0.96269702  0.03700282  0.96641039    -1.04600
H1707       H  0.54329544  0.45188903  0.94740513     0.32700
O1708       O  0.53019879  0.46625807  0.96217631    -1.07200
N1709       N  0.74624422  0.99204519  0.80056711    -0.36200
N1710       N  0.69780655  0.98603886  0.74604976    -0.56800
N1711       N  0.75166274  0.98469841  0.69789135    -0.36200
N1712       N  0.79987434  0.99243882  0.75280021    -0.56800
C1713       C  0.71748325  0.00342464  0.81475991     0.27400
C1714       C  0.77211997  0.00441923  0.81888749     0.27400
C1715       C  0.72493143  0.99036639  0.67763599     0.27400
C1716       C  0.77932722  0.99625297  0.68166389     0.27400
C1717       C  0.67780287  0.98008111  0.77308668     0.36000
C1718       C  0.68085866  0.97489203  0.71865122     0.36000
C1719       C  0.81765584  0.98662199  0.78112325     0.36000
C1720       C  0.82072896  0.98562606  0.72678030     0.36000
C1721       C  0.72516313  0.02428492  0.84180530    -0.21500
C1722       C  0.75986794  0.02463619  0.84461876    -0.21500
C1723       C  0.73569601  0.00589171  0.64822966    -0.21500
C1724       C  0.77020833  0.00939165  0.65067467    -0.21500
C1725       C  0.64813668  0.96454939  0.76286194    -0.22600
C1726       C  0.64995011  0.96157471  0.72829935    -0.22600
C1727       C  0.84984641  0.97541757  0.77304726    -0.22600
C1728       C  0.85189691  0.97511469  0.73843224    -0.22600
C1729       C  0.68497496  0.99179053  0.80606735    -0.17900
C1730       C  0.80616699  0.99584667  0.81354236    -0.17900
C1731       C  0.81272414  0.99223664  0.69298512    -0.17900
C1732       C  0.69143265  0.98066557  0.68500544    -0.17900
H1733       H  0.70755480  0.03688691  0.85850172     0.15000
H1734       H  0.77436466  0.03778561  0.86362730     0.15000
H1735       H  0.72037917  0.01364958  0.62711443     0.15000
H1736       H  0.78675400  0.02005411  0.63169837     0.15000
H1737       H  0.62703240  0.95686459  0.77848811     0.13300
H1738       H  0.63051312  0.95142556  0.71204834     0.13300
H1739       H  0.87007901  0.96929010  0.79021815     0.13300
H1740       H  0.87394875  0.96865361  0.72355338     0.13300
H1741       H  0.74794843  0.97321621  0.78231692     0.26500
H1742       H  0.75157164  0.97036791  0.71982164     0.26500
N1743       N  0.74720703  0.30186133  0.00927282    -0.36200
N1744       N  0.69675343  0.24986477  0.00087926    -0.56800
N1745       N  0.74920345  0.19986841  0.00497354    -0.36200
N1746       N  0.79964813  0.25182754  0.01642044    -0.56800
C1747       C  0.71850424  0.31970239  0.01391694     0.27400
C1748       C  0.77317926  0.32097513  0.02035876     0.27400
C1749       C  0.72124005  0.18058927  0.00810666     0.27400
C1750       C  0.77558585  0.18149396  0.01586826     0.27400
C1751       C  0.67818900  0.27691207  0.99267633     0.36000
C1752       C  0.67960252  0.22281406  0.98964380     0.36000
C1753       C  0.81921663  0.27942948  0.01283077     0.36000
C1754       C  0.82006075  0.22518247  0.01117405     0.36000
C1755       C  0.72635581  0.35055990  0.02817797    -0.21500
C1756       C  0.76093214  0.35143940  0.03203184    -0.21500
C1757       C  0.72992910  0.14960456  0.02124333    -0.21500
C1758       C  0.76435325  0.15006734  0.02583825    -0.21500
C1759       C  0.64913393  0.26708375  0.97585701    -0.22600
C1760       C  0.65004426  0.23264820  0.97391972    -0.22600
C1761       C  0.85225387  0.27024932  0.00567437    -0.22600
C1762       C  0.85285820  0.23583715  0.00500589    -0.22600
C1763       C  0.68595031  0.30992708  0.00288166    -0.17900
C1764       C  0.80779876  0.31270108  0.01731396    -0.17900
C1765       C  0.80974825  0.19137615  0.01371701    -0.17900
C1766       C  0.68864843  0.18949105  0.99701447    -0.17900
H1767       H  0.70907025  0.37066948  0.03441086     0.15000
H1768       H  0.77548532  0.37228402  0.04186527     0.15000
H1769       H  0.71334402  0.12855991  0.02626717     0.15000
H1770       H  0.77940676  0.12941806  0.03498593     0.15000
H1771       H  0.62909557  0.28300116  0.96663879     0.13300
H1772       H  0.63079994  0.21663168  0.96305715     0.13300
H1773       H  0.87376221  0.28657706  0.00160228     0.13300
H1774       H  0.87491499  0.22044914  0.00045996     0.13300
H1775       H  0.74950506  0.27992999  0.99523824     0.26500
H1776       H  0.75090362  0.22245061  0.99202872     0.26500
C1777       C  0.83133702  0.36213151  0.98758954    -0.11900
C1778       C  0.83278050  0.34058155  0.01532832     0.05100
C1779       C  0.85764182  0.34516694  0.53631672    -0.07200
C1780       C  0.88199083  0.37039290  0.53211581    -0.07900
C1781       C  0.88172524  0.39159602  0.00655026    -0.02500
C1782       C  0.85504937  0.38786415  0.98338079     0.04300
N1783       N  0.85053738  0.41069716  0.95626578     0.66900
H1784       H  0.81149186  0.35901417  0.96906341     0.15800
H1785       H  0.90103645  0.37403195  0.55108547     0.15500
N1786       N  0.85864782  0.32465709  0.56577995     0.74600
O1787       O  0.86229331  0.40322604  0.92762509    -0.38900
O1788       O  0.82627425  0.43107718  0.95817165    -0.38800
O1789       O  0.87993365  0.30121958  0.56746766    -0.39500
O1790       O  0.84468812  0.33501931  0.59250417    -0.39600
C1791       C  0.87495953  0.12889927  0.47887524    -0.11900
C1792       C  0.88606236  0.11482310  0.01036910     0.05100
C1793       C  0.87194105  0.12510016  0.04157946    -0.07200
C1794       C  0.84783194  0.15079680  0.04237803    -0.07900
C1795       C  0.83588378  0.16485448  0.01245441    -0.02500
C1796       C  0.84953770  0.15332853  0.47888616     0.04300
N1797       N  0.83547009  0.16429867  0.44765849     0.66900
H1798       H  0.88480687  0.11970927  0.45503483     0.15800
H1799       H  0.83742337  0.15896302  0.06635568     0.15500
N1800       N  0.87998450  0.10842600  0.07237155     0.74600
O1801       O  0.84620204  0.19094991  0.43424851    -0.38900
O1802       O  0.80601886  0.15220441  0.94063417    -0.38800
O1803       O  0.89378182  0.12727836  0.59453267    -0.39500
O1804       O  0.86277949  0.08304091  0.08064268    -0.39600
C1805       C  0.60543294  0.35956243  0.51913281    -0.11900
C1806       C  0.60854686  0.38558664  0.99642046     0.05100
C1807       C  0.63669291  0.38554378  0.97434572    -0.07200
C1808       C  0.66124945  0.36054952  0.97667124    -0.07900
C1809       C  0.65899109  0.33570117  0.00124657    -0.02500
C1810       C  0.63056347  0.33483140  0.52163593     0.04300
N1811       N  0.62908542  0.31099947  0.54844012     0.66900
H1812       H  0.58467849  0.35956296  0.53706446     0.15800
H1813       H  0.68247895  0.36070317  0.95929056     0.15500
N1814       N  0.64096016  0.41059669  0.94919848     0.74600
O1815       O  0.64853614  0.31421485  0.57338824    -0.38900
O1816       O  0.61361487  0.28486830  0.04672115    -0.38800
O1817       O  0.66382953  0.43127304  0.45172857    -0.39500
O1818       O  0.63103436  0.40433267  0.91963181    -0.39600
C1819       C  0.61179574  0.13655062  0.51714961    -0.11900
C1820       C  0.61370800  0.11115102  0.99393530     0.05100
C1821       C  0.64148182  0.11079810  0.97131350    -0.07200
C1822       C  0.66495481  0.13716015  0.97179609    -0.07900
C1823       C  0.66226626  0.16305907  0.99555515    -0.02500
C1824       C  0.63620465  0.16197027  0.51810987     0.04300
N1825       N  0.63474986  0.18681017  0.54416279     0.66900
H1826       H  0.59127356  0.13704108  0.53534994     0.15800
H1827       H  0.68594901  0.13697294  0.95414456     0.15500
N1828       N  0.64658733  0.08395462  0.94791217     0.74600
O1829       O  0.61613422  0.21231716  0.04345496    -0.38900
O1830       O  0.65673441  0.18701509  0.56713437    -0.38800
O1831       O  0.64123360  0.08910117  0.91703411    -0.39500
O1832       O  0.66671529  0.05856285  0.45635754    -0.39600
C1833       C  0.85242497  0.98826659  0.89714756    -0.11900
C1834       C  0.88162229  0.50391121  0.88990769     0.05100
C1835       C  0.88395902  0.52193941  0.85945382    -0.07200
C1836       C  0.85868367  0.51874675  0.83523217    -0.07900
C1837       C  0.83103056  0.00028217  0.84119441    -0.02500
C1838       C  0.82759256  0.98399011  0.87256686     0.04300
N1839       N  0.79976602  0.96224200  0.87968277     0.66900
H1840       H  0.84969130  0.97564128  0.92093696     0.15800
H1841       H  0.86055482  0.53333962  0.81227014     0.15500
N1842       N  0.91025900  0.54566793  0.85359824     0.74600
O1843       O  0.80184863  0.93171324  0.87147394    -0.38900
O1844       O  0.77944122  0.46488662  0.89933163    -0.38800
O1845       O  0.93616928  0.03701382  0.83574652    -0.39500
O1846       O  0.90261801  0.57633172  0.85433647    -0.39600
C1847       C  0.62685609  0.00872893  0.82411682    -0.11900
C1848       C  0.65762484  0.99321263  0.83198818     0.05100
C1849       C  0.66108448  0.47700875  0.86255931    -0.07200
C1850       C  0.63609802  0.48124585  0.88704963    -0.07900
C1851       C  0.60612831  0.49843438  0.88019408    -0.02500
C1852       C  0.60047510  0.01031689  0.84768059     0.04300
N1853       N  0.56860922  0.02312425  0.83704958     0.66900
H1854       H  0.62297771  0.01912529  0.79922187     0.15800
H1855       H  0.63970823  0.47004460  0.91142692     0.15500
N1856       N  0.68936279  0.45615359  0.87020324     0.74600
O1857       O  0.56483764  0.05437388  0.83419082    -0.38900
O1858       O  0.54847898  0.00373176  0.82188523    -0.38800
O1859       O  0.70944482  0.46522572  0.89312260    -0.41100
O1860       O  0.68842289  0.42562476  0.86176687    -0.39600
C1861       C  0.64175267  0.47200146  0.60125773    -0.11900
C1862       C  0.61545627  0.99304307  0.60803098     0.05100
C1863       C  0.61512212  0.01195056  0.63815395    -0.07200
C1864       C  0.63979695  0.00694647  0.66258954    -0.07900
C1865       C  0.66531200  0.98316388  0.65810262    -0.02500
C1866       C  0.66666716  0.46698399  0.62587546     0.04300
N1867       N  0.69249691  0.44275281  0.61952061     0.66900
H1868       H  0.64270465  0.45738634  0.57817503     0.15800
H1869       H  0.63938031  0.02237624  0.68516275     0.15500
N1870       N  0.59135650  0.03813813  0.64357038     0.74600
O1871       O  0.71668828  0.45039025  0.60014729    -0.38900
O1872       O  0.68593947  0.41216495  0.62442026    -0.38800
O1873       O  0.56750318  0.03328052  0.66422777    -0.39500
O1874       O  0.60048372  0.06779270  0.63712467    -0.39600
C1875       C  0.88699395  0.52441086  0.63952819    -0.11900
C1876       C  0.89048303  0.99756015  0.61790779     0.05100
C1877       C  0.86904546  0.96932441  0.62015886    -0.07200
C1878       C  0.84426325  0.96791181  0.64517290    -0.07900
C1879       C  0.84025914  0.99432730  0.66797351    -0.02500
C1880       C  0.86162327  0.52342808  0.66432095     0.04300
N1881       N  0.85703556  0.55132779  0.68661478     0.66900
H1882       H  0.90337570  0.54617185  0.63780294     0.15800
H1883       H  0.82784553  0.94614956  0.64670942     0.15500
N1884       N  0.87262233  0.94140140  0.59783324     0.74600
O1885       O  0.87299018  0.55233630  0.71407960    -0.38900
O1886       O  0.83212167  0.06962866  0.68441113    -0.38800
O1887       O  0.88705609  0.41617015  0.60647149    -0.39500
O1888       O  0.85323836  0.93917318  0.57274659    -0.39600
C1889       C  0.97297307  0.12326173  0.87156573    -0.11900
C1890       C  0.00327612  0.11433199  0.88704704     0.05100
C1891       C  0.53313573  0.13048734  0.87717092    -0.07200
C1892       C  0.53242965  0.15462216  0.85154431    -0.07900
C1893       C  0.00236118  0.16356115  0.83598858    -0.02500
C1894       C  0.97216673  0.14743012  0.84604192     0.04300
N1895       N  0.94048111  0.15542822  0.83093282     0.66900
H1896       H  0.94969471  0.11188924  0.88006211     0.15800
H1897       H  0.55579525  0.16660143  0.84374022     0.15500
N1898       N  0.56461348  0.12276944  0.89274780     0.74600
O1899       O  0.92073717  0.17517646  0.84616385    -0.38900
O1900       O  0.92864578  0.13614457  0.80858741    -0.38800
O1901       O  0.58588157  0.10539951  0.87667780    -0.39500
O1902       O  0.57458221  0.14065212  0.91707715    -0.39600
C1903       C  0.97353952  0.33756033  0.85917787    -0.11900
C1904       C  0.99941014  0.33915850  0.83500709     0.05100
C1905       C  0.52048257  0.36663293  0.83515589    -0.07200
C1906       C  0.51743802  0.39156517  0.85989684    -0.07900
C1907       C  0.99336973  0.38938214  0.88503664    -0.02500
C1908       C  0.97052525  0.36217949  0.88424256     0.04300
N1909       N  0.94265422  0.36039519  0.90707070     0.66900
H1910       H  0.95541214  0.31714171  0.85841076     0.15800
H1911       H  0.53544130  0.41211291  0.86017094     0.15500
N1912       N  0.54758614  0.36881992  0.81133874     0.74600
O1913       O  0.91447561  0.37144204  0.89749999    -0.38900
O1914       O  0.94353246  0.33968800  0.93104237    -0.38800
O1915       O  0.54586457  0.38994713  0.78779763    -0.39500
O1916       O  0.57593955  0.35659424  0.81885578    -0.39600
C1917       C  0.52518705  0.39455491  0.63891860    -0.11900
C1918       C  0.00779619  0.38727743  0.60928569     0.05100
C1919       C  0.99330666  0.35489455  0.60602950    -0.07200
C1920       C  0.99648056  0.33147921  0.63200797    -0.07900
C1921       C  0.01556926  0.33844908  0.66079571    -0.02500
C1922       C  0.52956485  0.37027987  0.66412051     0.04300
N1923       N  0.55123996  0.37792951  0.69185039     0.66900
H1924       H  0.53711905  0.41885959  0.64205123     0.15800
H1925       H  0.98373066  0.30748530  0.62965273     0.15500
N1926       N  0.97415612  0.34532872  0.57719699     0.74600
O1927       O  0.58225668  0.37104309  0.68932329    -0.38900
O1928       O  0.54197490  0.39955547  0.71324842    -0.38800
O1929       O  0.98856247  0.32856659  0.55425374    -0.39500
O1930       O  0.94256324  0.34298971  0.58040632    -0.39600
C1931       C  0.00104366  0.17251691  0.63227752    -0.11900
C1932       C  0.02097938  0.16575620  0.66060380     0.05100
C1933       C  0.53666842  0.13433578  0.66275829    -0.07200
C1934       C  0.52991944  0.10943023  0.63868642    -0.07900
C1935       C  0.01079231  0.11633267  0.61003964    -0.02500
C1936       C  0.99733956  0.14897468  0.60631723     0.04300
N1937       N  0.98042083  0.15913276  0.57630931     0.66900
H1938       H  0.98849080  0.19653522  0.63004935     0.15800
H1939       H  0.54114344  0.08512136  0.64155324     0.15500
N1940       N  0.56191821  0.12818880  0.68770089     0.74600
O1941       O  0.94884152  0.16307461  0.57705404    -0.38900
O1942       O  0.99733636  0.17377683  0.55365093    -0.38800
O1943       O  0.55711242  0.10547619  0.70930198    -0.39500
O1944       O  0.59172217  0.13811277  0.68207855    -0.39600
N1945       N  0.49881653  0.75133502  0.29975859    -0.36200
N1946       N  0.50755234  0.80337115  0.24886071    -0.56800
N1947       N  0.51477671  0.75181729  0.19815890    -0.36200
N1948       N  0.50910890  0.69980934  0.24892123    -0.56800
C1949       C  0.50421320  0.77886183  0.31914198     0.27400
C1950       C  0.50402052  0.72408009  0.31934136     0.27400
C1951       C  0.52479917  0.77951884  0.18105753     0.27400
C1952       C  0.52643779  0.72474055  0.18105546     0.27400
C1953       C  0.49524651  0.82148827  0.27490166     0.36000
C1954       C  0.50218856  0.82168075  0.22083402     0.36000
C1955       C  0.49851404  0.68044475  0.27485180     0.36000
C1956       C  0.50672598  0.68078344  0.22073817     0.36000
C1957       C  0.51270668  0.76901592  0.35148946    -0.21500
C1958       C  0.51228305  0.73449548  0.35172098    -0.21500
C1959       C  0.54332039  0.76993569  0.15289276    -0.21500
C1960       C  0.54437394  0.73537607  0.15289964    -0.21500
C1961       C  0.48165504  0.85132985  0.26346846    -0.22600
C1962       C  0.48566797  0.85126251  0.22902092    -0.22600
C1963       C  0.48995328  0.64878216  0.26318716    -0.22600
C1964       C  0.49404313  0.64934879  0.22882987    -0.22600
C1965       C  0.49900634  0.81247588  0.30896912    -0.17900
C1966       C  0.49948079  0.69024074  0.30910482    -0.17900
C1967       C  0.51816637  0.69086490  0.18838977    -0.17900
C1968       C  0.51467595  0.81284183  0.18863752    -0.17900
H1969       H  0.51803932  0.78502574  0.37291706     0.15000
H1970       H  0.51717403  0.71899447  0.37348333     0.15000
H1971       H  0.55429147  0.78614310  0.13390975     0.15000
H1972       H  0.55630458  0.71980062  0.13389760     0.15000
H1973       H  0.47037618  0.87114345  0.27843325     0.13300
H1974       H  0.47797830  0.87103989  0.21210007     0.13300
H1975       H  0.48200232  0.62729218  0.27777092     0.13300
H1976       H  0.48891048  0.62858321  0.21199643     0.13300
H1977       H  0.48855032  0.75116829  0.27566011     0.26500
H1978       H  0.49702215  0.75128254  0.21758174     0.26500
O1979       O  0.00293768  0.59924185  0.05193093    -0.79700
O1980       O  0.99996499  0.90454248  0.05300010    -0.81300
O1981       O  0.94732492  0.50203110  0.09823405    -0.78300
O1982       O  0.55804878  0.50040780  0.09241335    -0.76700
O1983       O  0.59697501  0.49723210  0.04957414    -0.78500
O1984       O  0.90484654  0.99965959  0.05954368    -0.79400
O1985       O  0.00518075  0.94512130  0.09364364    -0.80800
O1986       O  0.00508101  0.55905911  0.09288211    -0.81000
Eu1987     Eu  0.00134420  0.50175022  0.06725987     2.39200
O1988       O  0.53228009  0.96655974  0.03107086    -0.88600
O1989       O  0.96586397  0.53595668  0.03452868    -0.92200
C1990       C  0.00522134  0.59007883  0.08288982     1.02500
C1991       C  0.00401612  0.91407996  0.08384873     1.02400
C1992       C  0.91593000  0.50035759  0.08962191     1.02300
C1993       C  0.58862984  0.49820870  0.08113618     1.00200
H1994       H  0.95096744  0.95405851  0.04960474     0.29900
O1995       O  0.96455094  0.96812249  0.03491280    -1.00900
H1996       H  0.55015590  0.54830842  0.04414664     0.29900
O1997       O  0.53489061  0.53462049  0.03092886    -1.03500
O1998       O  0.99092187  0.90514472  0.44349997    -0.80700
O1999       O  0.00102556  0.59812435  0.44353277    -0.80200
O2000       O  0.89820317  0.94927653  0.50222327    -0.78700
O2001       O  0.59251247  0.94200129  0.49473996    -0.82000
O2002       O  0.59636160  0.55350889  0.49164801    -0.79900
O2003       O  0.90177629  0.55742223  0.50718374    -0.78500
O2004       O  0.93943924  0.00482253  0.40551768    -0.80000
O2005       O  0.54882053  0.00069865  0.39987051    -0.82000
O2006       O  0.90010903  0.00454297  0.44803537    -0.78700
O2007       O  0.59084987  0.99813946  0.43910855    -0.81400
O2008       O  0.93811572  0.90777841  0.50305563    -0.77100
O2009       O  0.94329916  0.59747595  0.50375658    -0.77200
O2010       O  0.55619817  0.59467149  0.49551031    -0.76800
O2011       O  0.55015030  0.90284347  0.49781702    -0.80300
O2012       O  0.99301172  0.94630004  0.40332975    -0.79700
O2013       O  0.99846443  0.55755053  0.40257464    -0.78000
Eu2014     Eu  0.99533233  0.93286175  0.49895130     2.39800
Eu2015     Eu  0.99923304  0.56955918  0.49835392     2.39600
Eu2016     Eu  0.92925971  0.00290246  0.50294790     2.38400
Eu2017     Eu  0.56676705  0.99836878  0.49633557     2.39900
Eu2018     Eu  0.99533556  0.00169277  0.43129293     2.39800
O2019       O  0.53149622  0.53443633  0.46299660    -0.92500
O2020       O  0.96095396  0.96824632  0.46650155    -0.91400
C2021       C  0.99142428  0.91527492  0.41260380     1.02700
C2022       C  0.00060833  0.58840104  0.41249273     1.01400
C2023       C  0.90716786  0.91820066  0.50325589     1.00800
C2024       C  0.58167608  0.91141685  0.49616336     1.02800
C2025       C  0.58709087  0.58453871  0.49284779     1.01700
C2026       C  0.91209162  0.58811926  0.50704141     1.00600
C2027       C  0.90876661  0.00528482  0.41654003     1.00700
C2028       C  0.58015981  0.99923958  0.40837540     1.03300
H2029       H  0.94838370  0.55122837  0.45230640     0.30600
O2030       O  0.96253818  0.53669861  0.46541714    -1.04600
H2031       H  0.54267652  0.95121285  0.44848072     0.32700
O2032       O  0.52979640  0.96557445  0.46321165    -1.07200
N2033       N  0.74586635  0.49041962  0.29952297    -0.36200
N2034       N  0.69748764  0.48623304  0.24478484    -0.56800
N2035       N  0.75149289  0.48705875  0.19667761    -0.36200
N2036       N  0.79966847  0.49311576  0.25165412    -0.56800
C2037       C  0.71703533  0.50113609  0.31412806     0.27400
C2038       C  0.77167355  0.50247113  0.31817706     0.27400
C2039       C  0.72482664  0.49270940  0.17635720     0.27400
C2040       C  0.77920391  0.49857978  0.18050165     0.27400
C2041       C  0.67722871  0.47972817  0.27149559     0.36000
C2042       C  0.68037037  0.47658836  0.21694315     0.36000
C2043       C  0.81734067  0.48625613  0.27981507     0.36000
C2044       C  0.82058509  0.48708838  0.22546115     0.36000
C2045       C  0.72458856  0.52114450  0.34183884    -0.21500
C2046       C  0.75927997  0.52181178  0.34451564    -0.21500
C2047       C  0.73568401  0.50807309  0.14688685    -0.21500
C2048       C  0.77016953  0.51167360  0.14946366    -0.21500
C2049       C  0.64718360  0.46543898  0.26059389    -0.22600
C2050       C  0.64906013  0.46376635  0.22596119    -0.22600
C2051       C  0.84952240  0.47523204  0.27142264    -0.22600
C2052       C  0.85168826  0.47611672  0.23683745    -0.22600
C2053       C  0.68450281  0.48999673  0.30490585    -0.17900
C2054       C  0.80581875  0.49442902  0.31253770    -0.17900
C2055       C  0.81258494  0.49431986  0.19177437    -0.17900
C2056       C  0.69129936  0.48302524  0.18356296    -0.17900
H2057       H  0.70691609  0.53313937  0.35891715     0.15000
H2058       H  0.77368445  0.53461425  0.36382722     0.15000
H2059       H  0.72045066  0.51557083  0.12561205     0.15000
H2060       H  0.78677647  0.52221007  0.13046780     0.15000
H2061       H  0.62579455  0.45778752  0.27584799     0.13300
H2062       H  0.62942453  0.45477266  0.20927425     0.13300
H2063       H  0.86966984  0.46837957  0.28841184     0.13300
H2064       H  0.87373773  0.46998186  0.22181442     0.13300
H2065       H  0.74770605  0.47228918  0.28058372     0.26500
H2066       H  0.75135468  0.47260791  0.21850955     0.26500
N2067       N  0.74656382  0.80138703  0.50828986    -0.36200
N2068       N  0.69638614  0.74914923  0.50020263    -0.56800
N2069       N  0.74922582  0.69940778  0.50320553    -0.36200
N2070       N  0.79940870  0.75162851  0.51432644    -0.56800
C2071       C  0.71780070  0.81902364  0.51337201     0.27400
C2072       C  0.77254854  0.82063301  0.51910249     0.27400
C2073       C  0.72139283  0.67999166  0.50657960     0.27400
C2074       C  0.77579816  0.68112917  0.51379138     0.27400
C2075       C  0.67755066  0.77610768  0.49236319     0.36000
C2076       C  0.67937501  0.72209797  0.48880324     0.36000
C2077       C  0.81879834  0.77937904  0.51090925     0.36000
C2078       C  0.81998168  0.72511883  0.50898380     0.36000
C2079       C  0.72562391  0.84989414  0.52760531    -0.21500
C2080       C  0.76023734  0.85098310  0.53102708    -0.21500
C2081       C  0.73034832  0.64900030  0.51950690    -0.21500
C2082       C  0.76480878  0.64960729  0.52375373    -0.21500
C2083       C  0.64846379  0.76623066  0.47563285    -0.22600
C2084       C  0.64964590  0.73184072  0.47333957    -0.22600
C2085       C  0.85189253  0.77042327  0.50371627    -0.22600
C2086       C  0.85271353  0.73600458  0.50288570    -0.22600
C2087       C  0.68517543  0.80907662  0.50272091    -0.17900
C2088       C  0.80719235  0.81256573  0.51570723    -0.17900
C2089       C  0.80988913  0.69123817  0.51152681    -0.17900
C2090       C  0.68865283  0.68880996  0.49591343    -0.17900
H2091       H  0.70828286  0.86987393  0.53410752     0.15000
H2092       H  0.77476206  0.87189412  0.54075869     0.15000
H2093       H  0.71390594  0.62787432  0.52465073     0.15000
H2094       H  0.78002877  0.62899535  0.53270901     0.15000
H2095       H  0.62825238  0.78207953  0.46667249     0.13300
H2096       H  0.63046121  0.71577927  0.46243772     0.13300
H2097       H  0.87330860  0.78690617  0.49979444     0.13300
H2098       H  0.87487493  0.72076480  0.49833859     0.13300
H2099       H  0.74882832  0.77951339  0.49416411     0.26500
H2100       H  0.75065808  0.72206206  0.49035603     0.26500
C2101       C  0.83041026  0.86271128  0.48680772    -0.11900
C2102       C  0.83200255  0.84063537  0.51414173     0.05100
C2103       C  0.85830906  0.84416513  0.03401373    -0.07200
C2104       C  0.88244483  0.86966135  0.03045438    -0.07900
C2105       C  0.88032960  0.89245317  0.50657834    -0.02500
C2106       C  0.85385535  0.88880699  0.48318281     0.04300
N2107       N  0.84939529  0.91193738  0.45632415     0.66900
H2108       H  0.81069843  0.85968881  0.46812769     0.15800
H2109       H  0.90181738  0.87261106  0.04913070     0.15500
N2110       N  0.85970170  0.82270942  0.06277267     0.74600
O2111       O  0.86181831  0.90511514  0.42779948    -0.38900
O2112       O  0.82480868  0.93194068  0.45811906    -0.38800
O2113       O  0.88189910  0.80008436  0.06397967    -0.39500
O2114       O  0.84507291  0.83168117  0.08965030    -0.39600
C2115       C  0.87477534  0.62797759  0.97644318    -0.11900
C2116       C  0.88597878  0.61446358  0.50912814     0.05100
C2117       C  0.87179010  0.62506449  0.54018945    -0.07200
C2118       C  0.84782057  0.65088798  0.54065848    -0.07900
C2119       C  0.83617323  0.66485380  0.51056366    -0.02500
C2120       C  0.84967141  0.65269440  0.97579342     0.04300
N2121       N  0.83673937  0.66397026  0.94419250     0.66900
H2122       H  0.88503539  0.61857910  0.95285610     0.15800
H2123       H  0.83728010  0.65923515  0.56451641     0.15500
N2124       N  0.87968773  0.60867920  0.57117431     0.74600
O2125       O  0.84887153  0.69003036  0.93078205    -0.38900
O2126       O  0.80696623  0.65227616  0.43840452    -0.38800
O2127       O  0.89362826  0.62839772  0.09167938    -0.39500
O2128       O  0.86187043  0.58391730  0.58004891    -0.39600
C2129       C  0.60651227  0.86041592  0.01918359    -0.11900
C2130       C  0.60736832  0.88428377  0.49669103     0.05100
C2131       C  0.63536782  0.88432461  0.47443300    -0.07200
C2132       C  0.66004101  0.85946272  0.47664933    -0.07900
C2133       C  0.65807353  0.83468695  0.50130067    -0.02500
C2134       C  0.63186311  0.83588419  0.02127673     0.04300
N2135       N  0.63155652  0.81261591  0.04860964     0.66900
H2136       H  0.58648134  0.86077196  0.03791499     0.15800
H2137       H  0.68118111  0.85970723  0.45915994     0.15500
N2138       N  0.63955762  0.90953366  0.44942747     0.74600
O2139       O  0.65167176  0.81670868  0.07289788    -0.38900
O2140       O  0.61300468  0.78366871  0.54700218    -0.38800
O2141       O  0.66216263  0.93047003  0.94796773    -0.39500
O2142       O  0.62940658  0.90353731  0.41988215    -0.39600
C2143       C  0.61080134  0.63803583  0.01539200    -0.11900
C2144       C  0.61354496  0.61078957  0.49269053     0.05100
C2145       C  0.64134333  0.61032265  0.47012815    -0.07200
C2146       C  0.66501131  0.63647489  0.47081103    -0.07900
C2147       C  0.66236083  0.66233652  0.49460415    -0.02500
C2148       C  0.63536759  0.66331574  0.01627694     0.04300
N2149       N  0.63388574  0.68843957  0.04206537     0.66900
H2150       H  0.59029961  0.63865868  0.03361195     0.15800
H2151       H  0.68600909  0.63625422  0.45316375     0.15500
N2152       N  0.64610804  0.58371253  0.44639126     0.74600
O2153       O  0.61459173  0.71128535  0.54219691    -0.38900
O2154       O  0.65607954  0.68919285  0.06482765    -0.38800
O2155       O  0.63977759  0.58901814  0.41573412    -0.39500
O2156       O  0.66484782  0.55986437  0.95371807    -0.39600
C2157       C  0.85231031  0.48676585  0.39619499    -0.11900
C2158       C  0.88153895  0.00520384  0.39114650     0.05100
C2159       C  0.88436886  0.02243695  0.36025967    -0.07200
C2160       C  0.85896983  0.01940536  0.33612397    -0.07900
C2161       C  0.83079430  0.49863790  0.34020186    -0.02500
C2162       C  0.82732980  0.48255043  0.37171362     0.04300
N2163       N  0.79927418  0.46118449  0.37914489     0.66900
H2164       H  0.84951756  0.47435526  0.42009075     0.15800
H2165       H  0.86125567  0.03338106  0.31281199     0.15500
N2166       N  0.91166538  0.04483467  0.35361647     0.74600
O2167       O  0.80091648  0.43058507  0.37110645    -0.38900
O2168       O  0.77906972  0.96757863  0.40165586    -0.38800
O2169       O  0.93679416  0.53282348  0.33446093    -0.39500
O2170       O  0.90562083  0.07585159  0.35407966    -0.39600
C2171       C  0.62703247  0.50824809  0.32351865    -0.11900
C2172       C  0.65705746  0.49108934  0.33070362     0.05100
C2173       C  0.66154173  0.97748161  0.36387112    -0.07200
C2174       C  0.63649556  0.98142163  0.38835013    -0.07900
C2175       C  0.60603002  0.99762433  0.38129840    -0.02500
C2176       C  0.60087015  0.51028127  0.34727578     0.04300
N2177       N  0.56982210  0.52548544  0.33748328     0.66900
H2178       H  0.62364729  0.51981956  0.29907966     0.15800
H2179       H  0.64054419  0.97080904  0.41292567     0.15500
N2180       N  0.69049304  0.95775105  0.37197209     0.74600
O2181       O  0.56830844  0.55697281  0.33517731    -0.38900
O2182       O  0.54811666  0.50785584  0.32232340    -0.38800
O2183       O  0.71004739  0.96794041  0.39487517    -0.41100
O2184       O  0.69046577  0.92699147  0.36438891    -0.39600
C2185       C  0.64243674  0.97229546  0.10185475    -0.11900
C2186       C  0.61598189  0.49554204  0.10634060     0.05100
C2187       C  0.61660218  0.51587376  0.13549008    -0.07200
C2188       C  0.64124028  0.51106057  0.15999663    -0.07900
C2189       C  0.66549810  0.48589495  0.15655265    -0.02500
C2190       C  0.66740019  0.96744794  0.12648060     0.04300
N2191       N  0.69358250  0.94362990  0.11995913     0.66900
H2192       H  0.64360360  0.95783611  0.07868334     0.15800
H2193       H  0.64151137  0.52730628  0.18198584     0.15500
N2194       N  0.59287931  0.54216309  0.14052610     0.74600
O2195       O  0.71752701  0.95165908  0.10043968    -0.38900
O2196       O  0.68753616  0.91293921  0.12484587    -0.38800
O2197       O  0.57038143  0.53831510  0.16283678    -0.39500
O2198       O  0.60108465  0.57145783  0.13164699    -0.39600
C2199       C  0.88768335  0.02332968  0.14120056    -0.11900
C2200       C  0.89052713  0.49829332  0.11673740     0.05100
C2201       C  0.86856140  0.47045663  0.11896018    -0.07200
C2202       C  0.84367801  0.46953612  0.14390045    -0.07900
C2203       C  0.84006669  0.49606061  0.16664999    -0.02500
C2204       C  0.86246976  0.02217300  0.16614360     0.04300
N2205       N  0.85819295  0.04983461  0.18879968     0.66900
H2206       H  0.90423825  0.04497990  0.13972642     0.15800
H2207       H  0.82691435  0.44803687  0.14546575     0.15500
N2208       N  0.87177670  0.44238106  0.09676620     0.74600
O2209       O  0.87401605  0.05024667  0.21635395    -0.38900
O2210       O  0.83310093  0.57153881  0.18278766    -0.38800
O2211       O  0.88607608  0.91544433  0.10643669    -0.39500
O2212       O  0.85226487  0.44016943  0.07177499    -0.39600
C2213       C  0.97100628  0.62257360  0.37007333    -0.11900
C2214       C  0.00120755  0.61457917  0.38629751     0.05100
C2215       C  0.53100550  0.63131793  0.37671708    -0.07200
C2216       C  0.52994509  0.65519992  0.35090387    -0.07900
C2217       C  0.00001452  0.66363740  0.33499258    -0.02500
C2218       C  0.97002859  0.64678043  0.34453660     0.04300
N2219       N  0.93833362  0.65435369  0.32919383     0.66900
H2220       H  0.94788246  0.61068757  0.37823940     0.15800
H2221       H  0.55303586  0.66791332  0.34346621     0.15500
N2222       N  0.56230917  0.62516461  0.39328968     0.74600
O2223       O  0.91885591  0.67498464  0.34354699    -0.38900
O2224       O  0.92622437  0.63425058  0.30773799    -0.38800
O2225       O  0.58501190  0.60910875  0.37782770    -0.39500
O2226       O  0.57045928  0.64334108  0.41807701    -0.39600
C2227       C  0.97251562  0.83836445  0.35864142    -0.11900
C2228       C  0.99944220  0.83939243  0.33559057     0.05100
C2229       C  0.52057226  0.86578709  0.33654087    -0.07200
C2230       C  0.51741400  0.89070407  0.36131219    -0.07900
C2231       C  0.99263035  0.88949054  0.38575684    -0.02500
C2232       C  0.96907936  0.86292766  0.38376091     0.04300
N2233       N  0.94021689  0.86173368  0.40537763     0.66900
H2234       H  0.95387603  0.81846552  0.35692205     0.15800
H2235       H  0.53605843  0.91065416  0.36237453     0.15500
N2236       N  0.54877274  0.86701856  0.31395410     0.74600
O2237       O  0.91272224  0.87337059  0.39460476    -0.38900
O2238       O  0.93958388  0.84090614  0.42926291    -0.38800
O2239       O  0.54898016  0.88828644  0.29046263    -0.39500
O2240       O  0.57620599  0.85354700  0.32260951    -0.39600
C2241       C  0.52634051  0.89421167  0.13873478    -0.11900
C2242       C  0.00854097  0.88758938  0.10984232     0.05100
C2243       C  0.99238437  0.85595037  0.10775973    -0.07200
C2244       C  0.99638563  0.83243298  0.13347107    -0.07900
C2245       C  0.01736629  0.83880182  0.16102117    -0.02500
C2246       C  0.53065213  0.87003163  0.16399973     0.04300
N2247       N  0.55257506  0.87756310  0.19157115     0.66900
H2248       H  0.53849527  0.91843045  0.14168649     0.15800
H2249       H  0.98239353  0.80904422  0.13215978     0.15500
N2250       N  0.96969459  0.84783032  0.08117885     0.74600
O2251       O  0.58353595  0.87051569  0.18881981    -0.38900
O2252       O  0.54355444  0.89913404  0.21313265    -0.38800
O2253       O  0.98028616  0.82992795  0.05706424    -0.39500
O2254       O  0.93855764  0.84771452  0.08792241    -0.39600
C2255       C  0.99984467  0.67336301  0.13076873    -0.11900
C2256       C  0.01886141  0.66628235  0.15967170     0.05100
C2257       C  0.53466563  0.63438331  0.16240003    -0.07200
C2258       C  0.52836880  0.60974538  0.13795988    -0.07900
C2259       C  0.00945678  0.61704219  0.10863963    -0.02500
C2260       C  0.99645840  0.64985931  0.10466357     0.04300
N2261       N  0.98023381  0.66019430  0.07432549     0.66900
H2262       H  0.98773667  0.69757404  0.12823525     0.15800
H2263       H  0.53925287  0.58533082  0.14098649     0.15500
N2264       N  0.55886314  0.62762456  0.18820793     0.74600
O2265       O  0.94869162  0.66447725  0.07445484    -0.38900
O2266       O  0.99773907  0.67456539  0.05193413    -0.38800
O2267       O  0.55303530  0.60458615  0.20921236    -0.39500
O2268       O  0.58893125  0.63741206  0.18394514    -0.39600
N2269       N  0.49790812  0.75140376  0.79984429    -0.36200
N2270       N  0.50794963  0.80330323  0.74893301    -0.56800
N2271       N  0.51530927  0.75150610  0.69835203    -0.36200
N2272       N  0.50867208  0.69959376  0.74912713    -0.56800
C2273       C  0.50320704  0.77891579  0.81932207     0.27400
C2274       C  0.50226625  0.72409685  0.81959056     0.27400
C2275       C  0.52516737  0.77911263  0.68101587     0.27400
C2276       C  0.52662217  0.72435400  0.68113662     0.27400
C2277       C  0.49582811  0.82172354  0.77485299     0.36000
C2278       C  0.50329705  0.82174230  0.72085541     0.36000
C2279       C  0.49792823  0.68023484  0.77502165     0.36000
C2280       C  0.50707277  0.68034723  0.72100977     0.36000
C2281       C  0.51069960  0.76897606  0.85189560    -0.21500
C2282       C  0.50972743  0.73448226  0.85217865    -0.21500
C2283       C  0.54312577  0.76941406  0.65254353    -0.21500
C2284       C  0.54413111  0.73487681  0.65266248    -0.21500
C2285       C  0.48309472  0.85188825  0.76326727    -0.22600
C2286       C  0.48758171  0.85179205  0.72889653    -0.22600
C2287       C  0.49015789  0.64834845  0.76341529    -0.22600
C2288       C  0.49487817  0.64873274  0.72914263    -0.22600
C2289       C  0.49893840  0.81266698  0.80899332    -0.17900
C2290       C  0.49802239  0.69020612  0.80927251    -0.17900
C2291       C  0.51841039  0.69049034  0.68860837    -0.17900
C2292       C  0.51545863  0.81250785  0.68865364    -0.17900
H2293       H  0.51579775  0.78490260  0.87344015     0.15000
H2294       H  0.51384902  0.71898603  0.87410575     0.15000
H2295       H  0.55378333  0.78554084  0.63331444     0.15000
H2296       H  0.55571871  0.71923782  0.63350227     0.15000
H2297       H  0.47211782  0.87196850  0.77809544     0.13300
H2298       H  0.48064142  0.87180230  0.71192490     0.13300
H2299       H  0.48227546  0.62682706  0.77798692     0.13300
H2300       H  0.49033189  0.62776210  0.71240506     0.13300
H2301       H  0.48838915  0.75130323  0.77545159     0.26500
H2302       H  0.49783715  0.75110972  0.71801015     0.26500
O2303       O  0.00328874  0.59900682  0.55208324    -0.79700
O2304       O  0.99969069  0.90411697  0.55320555    -0.81300
O2305       O  0.94710206  0.50188342  0.59774712    -0.78300
O2306       O  0.55738963  0.50008862  0.59235740    -0.76700
O2307       O  0.59642061  0.49671038  0.54966879    -0.78500
O2308       O  0.90477837  0.00002280  0.56017166    -0.79400
O2309       O  0.00502640  0.94456912  0.59393723    -0.80800
O2310       O  0.00524585  0.55865567  0.59287687    -0.81000
Eu2311     Eu  0.00116426  0.50161648  0.56688993     2.39200
O2312       O  0.53186245  0.96593928  0.53144790    -0.88600
O2313       O  0.96589497  0.53603874  0.53424850    -0.92200
C2314       C  0.00552015  0.58970062  0.58302208     1.02500
C2315       C  0.00382816  0.91353874  0.58404493     1.02400
C2316       C  0.91572498  0.50019861  0.58909563     1.02300
C2317       C  0.58799482  0.49765952  0.58123182     1.00200
H2318       H  0.95074526  0.95406954  0.55019021     0.29900
O2319       O  0.96427025  0.96794302  0.53554409    -1.00900
H2320       H  0.54984742  0.54815380  0.54386895     0.29900
O2321       O  0.53474384  0.53472092  0.53077579    -1.03500
O2322       O  0.99115400  0.90541697  0.94318124    -0.80700
O2323       O  0.00038181  0.59780682  0.94361651    -0.80200
O2324       O  0.89870844  0.94938344  0.00063239    -0.78700
O2325       O  0.59295110  0.94324011  0.99314721    -0.82000
O2326       O  0.59635501  0.55388802  0.99194336    -0.79900
O2327       O  0.90168845  0.55742263  0.00668922    -0.78500
O2328       O  0.93948929  0.00609921  0.90483859    -0.80000
O2329       O  0.54836255  0.00139203  0.89921397    -0.82000
O2330       O  0.90035332  0.00565303  0.94751939    -0.78700
O2331       O  0.59028802  0.99975456  0.93856682    -0.81400
O2332       O  0.93879460  0.90805739  0.00172510    -0.77100
O2333       O  0.94323457  0.59744814  0.00321057    -0.77200
O2334       O  0.55607889  0.59492955  0.99576130    -0.76800
O2335       O  0.55079665  0.90387031  0.99642396    -0.80300
O2336       O  0.99264133  0.94654203  0.90296151    -0.79700
O2337       O  0.99760278  0.55719288  0.90271402    -0.78000
Eu2338     Eu  0.99591628  0.93323823  0.99848204     2.39800
Eu2339     Eu  0.99908581  0.56946382  0.99846422     2.39600
Eu2340     Eu  0.92943551  0.00301046  0.00237794     2.38400
Eu2341     Eu  0.56664551  0.99943416  0.99581962     2.39900
Eu2342     Eu  0.99524178  0.00208719  0.93073974     2.39800
O2343       O  0.53177335  0.53454597  0.96309940    -0.92500
O2344       O  0.96125358  0.96842000  0.96602863    -0.91400
C2345       C  0.99120584  0.91551155  0.91228022     1.02700
C2346       C  0.99965984  0.58803971  0.91261375     1.01400
C2347       C  0.90781996  0.91836308  0.00145848     1.00800
C2348       C  0.58224800  0.91258494  0.99436255     1.02800
C2349       C  0.58699450  0.58489726  0.99307572     1.01700
C2350       C  0.91200306  0.58814307  0.00622067     1.00600
C2351       C  0.90887900  0.00675716  0.91600668     1.00700
C2352       C  0.57968197  0.00043303  0.90781085     1.03300
H2353       H  0.94819257  0.55080170  0.95247399     0.30600
O2354       O  0.96251755  0.53630519  0.96572548    -1.04600
H2355       H  0.54284491  0.95220450  0.94781141     0.32700
O2356       O  0.52982551  0.96655005  0.96273595    -1.07200
N2357       N  0.74631371  0.49049952  0.79939928    -0.36200
N2358       N  0.69770682  0.48672619  0.74477536    -0.56800
N2359       N  0.75154657  0.48627314  0.69648827    -0.36200
N2360       N  0.79998900  0.49204683  0.75142351    -0.56800
C2361       C  0.71773069  0.50151258  0.81428678     0.27400
C2362       C  0.77239720  0.50157338  0.81826615     0.27400
C2363       C  0.72481175  0.49237389  0.67637098     0.27400
C2364       C  0.77923432  0.49796702  0.68038978     0.27400
C2365       C  0.67744422  0.48082942  0.77164521     0.36000
C2366       C  0.68052305  0.47656147  0.71713545     0.36000
C2367       C  0.81785577  0.48531047  0.77950314     0.36000
C2368       C  0.82084732  0.48626783  0.72511891     0.36000
C2369       C  0.72574995  0.52067013  0.84246881    -0.21500
C2370       C  0.76044282  0.52050448  0.84511220    -0.21500
C2371       C  0.73558967  0.50836705  0.64722219    -0.21500
C2372       C  0.77011214  0.51167522  0.64965347    -0.21500
C2373       C  0.64730525  0.46652391  0.76108411    -0.22600
C2374       C  0.64921040  0.46394901  0.72650853    -0.22600
C2375       C  0.85013782  0.47470761  0.77094994    -0.22600
C2376       C  0.85212822  0.47563588  0.73635211    -0.22600
C2377       C  0.68494613  0.49120583  0.80496681    -0.17900
C2378       C  0.80639649  0.49310777  0.81234705    -0.17900
C2379       C  0.81265468  0.49352226  0.69147092    -0.17900
C2380       C  0.69128035  0.48265382  0.68357276    -0.17900
H2381       H  0.70836695  0.53258055  0.85990097     0.15000
H2382       H  0.77513027  0.53250019  0.86472934     0.15000
H2383       H  0.72027052  0.51655561  0.62627448     0.15000
H2384       H  0.78666704  0.52257046  0.63081857     0.15000
H2385       H  0.62590975  0.45929984  0.77654247     0.13300
H2386       H  0.62952465  0.45461184  0.71007250     0.13300
H2387       H  0.87045319  0.46811450  0.78784612     0.13300
H2388       H  0.87419225  0.46979843  0.72122922     0.13300
H2389       H  0.74775005  0.47271231  0.78011303     0.26500
H2390       H  0.75142050  0.47151824  0.71812507     0.26500
N2391       N  0.74682808  0.80199291  0.00324648    -0.36200
N2392       N  0.69645049  0.74983437  0.99636580    -0.56800
N2393       N  0.74926025  0.69985761  0.99865818    -0.36200
N2394       N  0.79960898  0.75202080  0.00854308    -0.56800
C2395       C  0.71817181  0.81971707  0.00859815     0.27400
C2396       C  0.77293623  0.82107630  0.01404358     0.27400
C2397       C  0.72144366  0.68056383  0.00286117     0.27400
C2398       C  0.77603903  0.68154737  0.00871187     0.27400
C2399       C  0.67751126  0.77674722  0.98858405     0.36000
C2400       C  0.67904373  0.72268101  0.98583801     0.36000
C2401       C  0.81900593  0.77974505  0.00512538     0.36000
C2402       C  0.82014785  0.72551391  0.00311501     0.36000
C2403       C  0.72617510  0.85051062  0.02287907    -0.21500
C2404       C  0.76079095  0.85141418  0.02620152    -0.21500
C2405       C  0.73064828  0.64959305  0.01567272    -0.21500
C2406       C  0.76519931  0.65009455  0.01903761    -0.21500
C2407       C  0.64796863  0.76673785  0.97276108    -0.22600
C2408       C  0.64896523  0.73231552  0.97098088    -0.22600
C2409       C  0.85203831  0.77077840  0.99763578    -0.22600
C2410       C  0.85285069  0.73637326  0.99683511    -0.22600
C2411       C  0.68541568  0.80980896  0.99839438    -0.17900
C2412       C  0.80754102  0.81287836  0.01052183    -0.17900
C2413       C  0.81011737  0.69167505  0.00608196    -0.17900
C2414       C  0.68840183  0.68944714  0.99313473    -0.17900
H2415       H  0.70893560  0.87050633  0.02960216     0.15000
H2416       H  0.77542106  0.87220500  0.03603482     0.15000
H2417       H  0.71428650  0.62855484  0.02139491     0.15000
H2418       H  0.78054703  0.62948126  0.02777029     0.15000
H2419       H  0.62757129  0.78252855  0.96411772     0.13300
H2420       H  0.62944607  0.71617357  0.96081367     0.13300
H2421       H  0.87345698  0.78723458  0.99362092     0.13300
H2422       H  0.87500692  0.72112949  0.99228107     0.13300
H2423       H  0.74889283  0.78013143  0.98906343     0.26500
H2424       H  0.75042181  0.72251199  0.98578921     0.26500
C2425       C  0.83053640  0.86420615  0.98365407    -0.11900
C2426       C  0.83252311  0.84079831  0.00981669     0.05100
C2427       C  0.85712048  0.84553160  0.53876563    -0.07200
C2428       C  0.88104727  0.87117867  0.53456892    -0.07900
C2429       C  0.88107919  0.89250521  0.00382187    -0.02500
C2430       C  0.85407280  0.89028966  0.98088245     0.04300
N2431       N  0.84933586  0.91470210  0.95524870     0.66900
H2432       H  0.81043879  0.86225204  0.96524825     0.15800
H2433       H  0.89964105  0.87553510  0.55381401     0.15500
N2434       N  0.85794952  0.82554673  0.56859419     0.74600
O2435       O  0.86165792  0.90940761  0.92634771    -0.38900
O2436       O  0.82478680  0.93461958  0.95826727    -0.38800
O2437       O  0.87928989  0.80221254  0.57086846    -0.39500
O2438       O  0.84362465  0.83624252  0.59499303    -0.39600
C2439       C  0.87402920  0.62845820  0.47900078    -0.11900
C2440       C  0.88593429  0.61461013  0.00717734     0.05100
C2441       C  0.87143734  0.62636872  0.03767833    -0.07200
C2442       C  0.84761241  0.65230067  0.03692447    -0.07900
C2443       C  0.83652559  0.66540224  0.00622958    -0.02500
C2444       C  0.84865100  0.65290165  0.47953649     0.04300
N2445       N  0.83458715  0.66448779  0.44854187     0.66900
H2446       H  0.88380882  0.61969053  0.45497223     0.15800
H2447       H  0.83671682  0.66141709  0.06033794     0.15500
N2448       N  0.87893295  0.61117488  0.06937412     0.74600
O2449       O  0.84565062  0.69113865  0.43540136    -0.38900
O2450       O  0.80911304  0.65223067  0.93353572    -0.38800
O2451       O  0.89568909  0.62465943  0.59350820    -0.39500
O2452       O  0.86154546  0.58622448  0.07854351    -0.39600
C2453       C  0.60506709  0.85880996  0.52112645    -0.11900
C2454       C  0.60791402  0.88543508  0.99422696     0.05100
C2455       C  0.63483979  0.88480454  0.97068833    -0.07200
C2456       C  0.65940007  0.85975202  0.97226791    -0.07900
C2457       C  0.65832613  0.83544105  0.99743317    -0.02500
C2458       C  0.63055070  0.83446971  0.52394390     0.04300
N2459       N  0.62920717  0.81068272  0.55080118     0.66900
H2460       H  0.58422183  0.85867400  0.53895227     0.15800
H2461       H  0.67979065  0.85952494  0.95391241     0.15500
N2462       N  0.63826600  0.90966484  0.94522258     0.74600
O2463       O  0.64862178  0.81407033  0.57575603    -0.38900
O2464       O  0.61579408  0.78524107  0.04567122    -0.38800
O2465       O  0.66237898  0.93124203  0.45382386    -0.39500
O2466       O  0.62622179  0.90373302  0.91638543    -0.39600
C2467       C  0.61084919  0.63710654  0.51622551    -0.11900
C2468       C  0.61337680  0.61122528  0.99239397     0.05100
C2469       C  0.64085682  0.61047546  0.96947405    -0.07200
C2470       C  0.66443532  0.63669046  0.96937247    -0.07900
C2471       C  0.66203095  0.66299019  0.99269696    -0.02500
C2472       C  0.63551005  0.66220739  0.51793631     0.04300
N2473       N  0.63412687  0.68647102  0.54452920     0.66900
H2474       H  0.59021213  0.63740293  0.53430230     0.15800
H2475       H  0.68519070  0.63619480  0.95144649     0.15500
N2476       N  0.64529261  0.58355539  0.94602807     0.74600
O2477       O  0.61319513  0.71230589  0.03960907    -0.38900
O2478       O  0.65559119  0.68556547  0.56796087    -0.38800
O2479       O  0.63889171  0.58854898  0.91533208    -0.39500
O2480       O  0.66594796  0.56017915  0.45385206    -0.39600
C2481       C  0.85326740  0.48369181  0.89555607    -0.11900
C2482       C  0.88150369  0.00721139  0.89081948     0.05100
C2483       C  0.88431858  0.02444181  0.85992972    -0.07200
C2484       C  0.85887250  0.02138614  0.83583301    -0.07900
C2485       C  0.83141903  0.49682730  0.83998442    -0.02500
C2486       C  0.82848007  0.47949665  0.87085668     0.04300
N2487       N  0.80114456  0.45694628  0.87734753     0.66900
H2488       H  0.85105398  0.47018092  0.91889210     0.15800
H2489       H  0.86116096  0.03522531  0.81243916     0.15500
N2490       N  0.91151457  0.04699143  0.85336513     0.74600
O2491       O  0.80433254  0.42648544  0.86925108    -0.38900
O2492       O  0.77898000  0.97073630  0.90232156    -0.38800
O2493       O  0.93611161  0.53659070  0.83724490    -0.39500
O2494       O  0.90564932  0.07799758  0.85528974    -0.39600
C2495       C  0.62806138  0.51074368  0.82413488    -0.11900
C2496       C  0.65757254  0.49254660  0.83082685     0.05100
C2497       C  0.66219229  0.98040645  0.86483872    -0.07200
C2498       C  0.63698736  0.98477934  0.88902168    -0.07900
C2499       C  0.60572584  0.99886769  0.88093237    -0.02500
C2500       C  0.60188809  0.51274099  0.84793337     0.04300
N2501       N  0.57132695  0.52918673  0.83864822     0.66900
H2502       H  0.62505597  0.52303996  0.80000288     0.15800
H2503       H  0.64160474  0.97608646  0.91426615     0.15500
N2504       N  0.69189397  0.96239575  0.87418971     0.74600
O2505       O  0.57121270  0.56067738  0.83592314    -0.38900
O2506       O  0.54863682  0.51238863  0.82398756    -0.38800
O2507       O  0.71028665  0.97419245  0.89728883    -0.41100
O2508       O  0.69358095  0.93146986  0.86755522    -0.39600
C2509       C  0.64144787  0.96958613  0.60301925    -0.11900
C2510       C  0.61523405  0.49477617  0.60663714     0.05100
C2511       C  0.61448716  0.51325378  0.63702137    -0.07200
C2512       C  0.63935360  0.50853783  0.66130239    -0.07900
C2513       C  0.66530013  0.48526652  0.65653818    -0.02500
C2514       C  0.66628479  0.96442986  0.62771347     0.04300
N2515       N  0.69165216  0.93963437  0.62173726     0.66900
H2516       H  0.64207358  0.95462801  0.58014982     0.15800
H2517       H  0.63862438  0.52367159  0.68406897     0.15500
N2518       N  0.59003216  0.53870934  0.64292244     0.74600
O2519       O  0.71632752  0.94672276  0.60276696    -0.38900
O2520       O  0.68441678  0.90920396  0.62669268    -0.38800
O2521       O  0.56619750  0.53278945  0.66332221    -0.39500
O2522       O  0.59847000  0.56871823  0.63727053    -0.39600
C2523       C  0.88698847  0.02381402  0.64140953    -0.11900
C2524       C  0.89032374  0.49800328  0.61617687     0.05100
C2525       C  0.86857221  0.47000733  0.61844149    -0.07200
C2526       C  0.84374976  0.46891964  0.64345149    -0.07900
C2527       C  0.84001160  0.49543515  0.66621117    -0.02500
C2528       C  0.86167326  0.02248592  0.66624549     0.04300
N2529       N  0.85688403  0.05023355  0.68869543     0.66900
H2530       H  0.90318474  0.04571623  0.63976869     0.15800
H2531       H  0.82715536  0.44729798  0.64507911     0.15500
N2532       N  0.87192684  0.44198666  0.59617844     0.74600
O2533       O  0.87269660  0.05112360  0.71624746    -0.38900
O2534       O  0.83232273  0.57078462  0.68232406    -0.38800
O2535       O  0.88704854  0.91531744  0.60844606    -0.39500
O2536       O  0.85206439  0.43941623  0.57149716    -0.39600
C2537       C  0.96973917  0.62160546  0.87000572    -0.11900
C2538       C  0.99994156  0.61416791  0.88645654     0.05100
C2539       C  0.52949581  0.63208903  0.87758607    -0.07200
C2540       C  0.52835713  0.65586813  0.85170091    -0.07900
C2541       C  0.99829371  0.66317459  0.83523757    -0.02500
C2542       C  0.96852174  0.64578595  0.84447619     0.04300
N2543       N  0.93685948  0.65264889  0.82871750     0.66900
H2544       H  0.94683027  0.60927053  0.87799300     0.15800
H2545       H  0.55127926  0.66911766  0.84470564     0.15500
N2546       N  0.56057468  0.62685116  0.89487912     0.74600
O2547       O  0.91662368  0.67264928  0.84293048    -0.38900
O2548       O  0.92559252  0.63236270  0.80697641    -0.38800
O2549       O  0.58426288  0.61191142  0.87977819    -0.39500
O2550       O  0.56740902  0.64498071  0.92009347    -0.39600
C2551       C  0.97152077  0.83812291  0.85926779    -0.11900
C2552       C  0.99774034  0.83926013  0.83540609     0.05100
C2553       C  0.52025647  0.86651512  0.83601883    -0.07200
C2554       C  0.51707344  0.89152926  0.86068388    -0.07900
C2555       C  0.99185068  0.88965285  0.88546425    -0.02500
C2556       C  0.96861539  0.86275361  0.88438915     0.04300
N2557       N  0.94072823  0.86105734  0.90723531     0.66900
H2558       H  0.95309607  0.81797899  0.85829534     0.15800
H2559       H  0.53542540  0.91176346  0.86135841     0.15500
N2560       N  0.54802599  0.86821874  0.81292246     0.74600
O2561       O  0.91261091  0.87240419  0.89781606    -0.38900
O2562       O  0.94146189  0.84013900  0.93102793    -0.38800
O2563       O  0.54747646  0.88962595  0.78956534    -0.39500
O2564       O  0.57589464  0.85540229  0.82119627    -0.39600
C2565       C  0.52819210  0.89298622  0.63780100    -0.11900
C2566       C  0.00820677  0.88688111  0.60990092     0.05100
C2567       C  0.99328710  0.85469829  0.60678099    -0.07200
C2568       C  0.99660379  0.83122426  0.63263771    -0.07900
C2569       C  0.01614217  0.83801832  0.66115441    -0.02500
C2570       C  0.53276632  0.86869494  0.66290605     0.04300
N2571       N  0.55633933  0.87526209  0.68931549     0.66900
H2572       H  0.54157409  0.91665112  0.63990681     0.15800
H2573       H  0.98344141  0.80742646  0.63051536     0.15500
N2574       N  0.97321003  0.84559559  0.57843667     0.74600
O2575       O  0.58674659  0.86666337  0.68517392    -0.38900
O2576       O  0.54934523  0.89712862  0.71131539    -0.38800
O2577       O  0.98639981  0.82793471  0.55544740    -0.39500
O2578       O  0.94161561  0.84475923  0.58224604    -0.39600
C2579       C  0.00033306  0.67278470  0.63118414    -0.11900
C2580       C  0.01935110  0.66561174  0.66005692     0.05100
C2581       C  0.53485599  0.63415889  0.66221736    -0.07200
C2582       C  0.52821293  0.60950372  0.63787333    -0.07900
C2583       C  0.00978866  0.61650398  0.60893449    -0.02500
C2584       C  0.99697906  0.64939485  0.60499582     0.04300
N2585       N  0.98092512  0.65990686  0.57463164     0.66900
H2586       H  0.98820639  0.69699417  0.62872362     0.15800
H2587       H  0.53894937  0.58497903  0.64089148     0.15500
N2588       N  0.55973541  0.62762474  0.68742576     0.74600
O2589       O  0.94922883  0.66287368  0.57420165    -0.38900
O2590       O  0.99826730  0.67551166  0.55296220    -0.38800
O2591       O  0.55485607  0.60425619  0.70829157    -0.39500
O2592       O  0.58948771  0.63812091  0.68264887    -0.39600
loop_ 
_geom_bond_atom_site_label_1 
_geom_bond_atom_site_label_2 
_geom_bond_distance 
_geom_bond_site_symmetry_2 
_ccdc_geom_bond_type 
N1            C6   1.355   1_655  A
N1            C5   1.355   1_655  A
N1           H33   1.040       .  S
N2            C9   1.347   1_455  A
N2           C10   1.350   1_455  A
N3            C8   1.353       .  A
N3            C7   1.356       .  A
N3           H34   1.041   1_455  S
N4           C11   1.353   1_455  A
N4           C12   1.352       .  A
C5           C13   1.386       .  A
C5           C21   1.419   1_455  A
C6           C22   1.419   1_455  A
C6           C14   1.388       .  A
C7           C15   1.386       .  A
C7           C24   1.420       .  A
C8           C23   1.419       .  A
C8           C16   1.387       .  A
C9           C21   1.408       .  A
C9           C17   1.386       .  A
C10          C24   1.411   1_655  A
C10          C18   1.386       .  A
C11          C19   1.385       .  A
C11          C22   1.413       .  A
C12          C20   1.387   1_455  A
C12          C23   1.418       .  A
C13          C14   1.377       .  A
C13          H25   1.082       .  S
C14          H26   1.081       .  S
C15          C16   1.379       .  A
C15          H27   1.082       .  S
C16          H28   1.082       .  S
C17          C18   1.375       .  A
C17          H29   1.082       .  S
C18          H30   1.082       .  S
C19          C20   1.371       .  A
C19          H31   1.081       .  S
C20          H32   1.081       .  S
C21        C1580   1.492       .  S
C22        C1569   1.492       .  S
C23        C1608   1.497       .  S
C24        C1597   1.499       .  S
O35          C46   1.286       .  A
O35        Eu395   2.432   1_554  S
O36          C47   1.288       .  A
O36        Eu394   2.444   1_554  S
O37          C48   1.292   1_545  A
O37         Eu43   2.462       .  S
O38          C49   1.291       .  A
O38       Eu1339   2.455   1_565  S
O39          C49   1.294       .  A
O39       Eu1045   2.477   1_554  S
O40         C696   1.291       .  A
O40        Eu396   2.461       .  S
O41          C47   1.299       .  A
O41        Eu691   2.496       .  S
O42          C46   1.299       .  A
O42         Eu43   2.495       .  S
Eu43       O1334   2.457   1_545  S
Eu43        O689   2.487   1_545  S
Eu43         O45   2.355       .  S
Eu43       O1349   2.353       .  S
Eu43       O1988   2.353   1_545  S
Eu43        O699   2.363   1_545  S
O44       Eu1987   2.353       .  S
O44        Eu397   2.347   1_554  S
O44       Eu1690   2.356   1_454  S
O45        Eu395   2.354   1_554  S
O45       Eu1044   2.357       .  S
C46         C315   1.488       .  S
C47         C298   1.495       .  S
C48         C256   1.471       .  S
C48         O688   1.292       .  A
C49         C242   1.484       .  S
H50          O51   0.968       .  S
O51        Eu691   2.365       .  S
O51        Eu396   2.359       .  S
O51        Eu394   2.356   1_554  S
H52          O53   0.972       .  S
O53       Eu1339   2.353       .  S
O53       Eu1691   2.364   1_454  S
O53       Eu1045   2.357   1_544  S
O54          C77   1.291       .  A
O54         Eu70   2.462       .  S
O55          C78   1.289       .  A
O55         Eu71   2.455       .  S
O56          C79   1.289       .  A
O56         Eu72   2.456       .  S
O57          C80   1.293       .  A
O57         Eu73   2.470       .  S
O58          C81   1.293       .  A
O58        Eu721   2.469   1_545  S
O59          C82   1.290       .  A
O59        Eu720   2.459       .  S
O60          C83   1.289       .  A
O60         Eu74   2.446       .  S
O61          C84   1.288       .  A
O61       Eu1370   2.447   1_455  S
O62          C83   1.294       .  A
O62         Eu72   2.469       .  S
O63          C84   1.292       .  A
O63         Eu73   2.455       .  S
O64          C79   1.294       .  A
O64         Eu70   2.474       .  S
O65          C82   1.296       .  A
O65         Eu71   2.490       .  S
O66          C81   1.293       .  A
O66       Eu1367   2.465   1_455  S
O67          C80   1.294       .  A
O67       Eu1366   2.478   1_455  S
O68          C77   1.293       .  A
O68         Eu74   2.469       .  S
O69          C78   1.293       .  A
O69        Eu722   2.472       .  S
Eu70        O360   2.453       .  S
Eu70       O1363   2.477       .  S
Eu70         O76   2.356       .  S
Eu70       O1664   2.355       .  S
Eu70        O375   2.356       .  S
Eu70       O1384   2.358       .  S
Eu71        O359   2.432       .  S
Eu71       O1362   2.464       .  S
Eu71         O86   2.351       .  S
Eu71        O369   2.355       .  S
Eu71       O1673   2.365       .  S
Eu71       O1371   2.350       .  S
Eu72        O364   2.459       .  S
Eu72        O707   2.455       .  S
Eu72         O76   2.353       .  S
Eu72       O1017   2.356       .  S
Eu72        O375   2.361       .  S
Eu72        O734   2.361       .  S
Eu73       O1011   2.475       .  S
Eu73        O706   2.467       .  S
Eu73         O88   2.359       .  S
Eu73        O368   2.347       .  S
Eu73       O1025   2.360       .  S
Eu73        O723   2.354       .  S
Eu74       O1357   2.446       .  S
Eu74        O717   2.471       .  S
Eu74         O76   2.357       .  S
Eu74       O2019   2.345       .  S
Eu74        O734   2.361       .  S
Eu74       O1384   2.362       .  S
O75       Eu1367   2.350   1_455  S
O75        Eu721   2.353   1_545  S
O75       Eu2018   2.345   1_455  S
C77         C287   1.480       .  S
C78         C270   1.474       .  S
C79         C161   1.477       .  S
C80         C186   1.488       .  S
C81         C200   1.481       .  S
C82         C172   1.480       .  S
C83         C214   1.477       .  S
C84         C231   1.480       .  S
H85          O86   0.963       .  S
O86        Eu720   2.364       .  S
O86        Eu722   2.361       .  S
H87          O88   0.961       .  S
O88       Eu1366   2.360   1_455  S
O88       Eu1370   2.362   1_455  S
N89          C94   1.350   1_565  A
N89          C93   1.347   1_565  A
N89         H121   1.043       .  S
N90          C97   1.352       .  A
N90          C98   1.353       .  A
N91          C96   1.349       .  A
N91          C95   1.351       .  A
N91         H122   1.042       .  S
N92          C99   1.350       .  A
N92         C100   1.347       .  A
C93         C101   1.389       .  A
C93         C109   1.411   1_545  A
C94         C110   1.407   1_545  A
C94         C102   1.385       .  A
C95         C103   1.387   1_565  A
C95         C112   1.410       .  A
C96         C111   1.407       .  A
C96         C104   1.387   1_565  A
C97         C109   1.417       .  A
C97         C105   1.387       .  A
C98         C112   1.417       .  A
C98         C106   1.385       .  A
C99         C107   1.387       .  A
C99         C110   1.411       .  A
C100        C108   1.385       .  A
C100        C111   1.406       .  A
C101        C102   1.377       .  A
C101        H113   1.082       .  S
C102        H114   1.082       .  S
C103        C104   1.376       .  A
C103        H115   1.082       .  S
C104        H116   1.083       .  S
C105        C106   1.376       .  A
C105        H117   1.082       .  S
C106        H118   1.082       .  S
C107        C108   1.374       .  A
C107        H119   1.082       .  S
C108        H120   1.082       .  S
C109        C228   1.490       .  S
C110        C217   1.487       .  S
C111        C259   1.474       .  S
C112        C245   1.493       .  S
N123        C128   1.352       .  A
N123        C127   1.353       .  A
N123        H155   1.039       .  S
N124        C131   1.348       .  A
N124        C132   1.348       .  A
N125        C130   1.351       .  A
N125        C129   1.352       .  A
N125        H156   1.040       .  S
N126        C133   1.351       .  A
N126        C134   1.351       .  A
C127        C135   1.387       .  A
C127        C143   1.415       .  A
C128        C144   1.413       .  A
C128        C136   1.386       .  A
C129        C137   1.387       .  A
C129        C146   1.412       .  A
C130        C145   1.411       .  A
C130        C138   1.387       .  A
C131        C143   1.409       .  A
C131        C139   1.386       .  A
C132        C146   1.409       .  A
C132        C140   1.386       .  A
C133        C141   1.386       .  A
C133        C144   1.413       .  A
C134        C142   1.385       .  A
C134        C145   1.411       .  A
C135        C136   1.377       .  A
C135        H147   1.082       .  S
C136        H148   1.082       .  S
C137        C138   1.375       .  A
C137        H149   1.082       .  S
C138        H150   1.082       .  S
C139        C140   1.375       .  A
C139        H151   1.082       .  S
C140        H152   1.082       .  S
C141        C142   1.372       .  A
C141        H153   1.082       .  S
C142        H154   1.082       .  S
C143        C189   1.485       .  S
C144        C158   1.487       .  S
C145        C175   1.483       .  S
C146        C203   1.484       .  S
C157        C158   1.401       .  A
C157        C162   1.399       .  A
C157        H164   1.084       .  S
C158        C483   1.409       .  A
C159        C160   1.401       .  A
C159        C482   1.409       .  A
C159        N166   1.428       .  S
C160        C485   1.401       .  A
C160        H165   1.080       .  S
C161        C162   1.409       .  A
C161        C484   1.399       .  A
C162        N163   1.424       .  S
N163        O167   1.261       .  A
N163        O168   1.261       .  A
N166        O170   1.262       .  A
N166        O169   1.262       .  A
C171        C176   1.403       .  A
C171        C496   1.405   1_556  A
C171        H178   1.084       .  S
C172        C173   1.415       .  A
C172        C495   1.406       .  A
C173        C174   1.402       .  A
C173        N180   1.430       .  S
C174        C175   1.399       .  A
C174        H179   1.084       .  S
C175        C500   1.406       .  A
C176        C499   1.406   1_556  A
C176        N177   1.430       .  S
N177        O181   1.262       .  A
N177        O506   1.262       .  A
N180        O184   1.262       .  A
N180        O507   1.261       .  A
O182        N501   1.262       .  A
O183        N504   1.261       .  A
C185        C190   1.406       .  A
C185        C510   1.408   1_554  A
C185        H192   1.084       .  S
C186        C187   1.414       .  A
C186        C509   1.408       .  A
C187        C188   1.397       .  A
C187        N194   1.423       .  S
C188        C189   1.395       .  A
C188        H193   1.084       .  S
C189        C514   1.408       .  A
C190        C513   1.408       .  A
C190        N191   1.429       .  S
N191        O195   1.262       .  A
N191        O520   1.261       .  A
N194        O198   1.262       .  A
N194        O521   1.262       .  A
O196        N515   1.261       .  A
O197        N518   1.262       .  A
C199        C204   1.400       .  A
C199        C524   1.407   1_554  A
C199        H206   1.084       .  S
C200        C201   1.415       .  A
C200        C523   1.407       .  A
C201        C202   1.401       .  A
C201        N208   1.428       .  S
C202        C203   1.399       .  A
C202        H207   1.084       .  S
C203        C528   1.406       .  A
C204        C527   1.406   1_554  A
C204        N205   1.430       .  S
N205        O533   1.261       .  A
N205        O210   1.262       .  A
N208        O536   1.262       .  A
N208        O211   1.261       .  A
O209        N529   1.261       .  A
O212        N532   1.262       .  A
C213        C218   1.398       .  A
C213        C862   1.397   1_565  A
C213        H220   1.076       .  S
C214        C215   1.409       .  A
C214        C861   1.398       .  A
C215        C216   1.395       .  A
C215        N222   1.423       .  S
C216        C865   1.400       .  A
C216        H221   1.084       .  S
C217        C218   1.411       .  A
C217        C864   1.400   1_565  A
C218        N219   1.428       .  S
N219        O223   1.262       .  A
N219        O872   1.261       .  A
N222        O226   1.260       .  A
N222        O873   1.262       .  A
O224        N867   1.261       .  A
O225        N870   1.262       .  A
C227        C228   1.403   1_545  A
C227        C232   1.400       .  A
C227        H234   1.084       .  S
C228        C877   1.412       .  A
C229        C230   1.393       .  A
C229        C876   1.412       .  A
C229        N236   1.430       .  S
C230        C231   1.400       .  A
C230        H235   1.077       .  S
C231        C880   1.412       .  A
C232        C879   1.413   1_545  A
C232        N233   1.427       .  S
N233        O237   1.260       .  A
N233        O238   1.262       .  A
N236        O240   1.262       .  A
N236        O239   1.261       .  A
C241        C246   1.404       .  A
C241        C890   1.404       .  A
C241        H248   1.084       .  S
C242        C243   1.410   1_565  A
C242        C889   1.405       .  A
C243        C244   1.393       .  A
C243        N250   1.422       .  S
C244        C245   1.397   1_545  A
C244        H249   1.084       .  S
C245        C894   1.417       .  A
C246        C893   1.413       .  A
C246        N247   1.428       .  S
N247        O251   1.262       .  A
N247        O252   1.262       .  A
N250        O254   1.262       .  A
N250        O253   1.262       .  A
C255        C260   1.403       .  A
C255        C904   1.406       .  A
C255        H262   1.084       .  S
C256        C257   1.411       .  A
C256        C903   1.406   1_565  A
C257        C258   1.394       .  A
C257        N264   1.428       .  S
C258        C259   1.396       .  A
C258        H263   1.084       .  S
C259        C908   1.406   1_565  A
C260        C907   1.406       .  A
C260        N261   1.430       .  S
N261        O265   1.262       .  A
N261        O914   1.262       .  A
N264        O268   1.262       .  A
N264        O915   1.262       .  A
O266        N909   1.262       .  A
O267        N912   1.262       .  A
C269        C270   1.397       .  A
C269        C274   1.400       .  A
C269        H276   1.078       .  S
C270       C1567   1.409       .  A
C271        C272   1.402       .  A
C271       C1566   1.409       .  A
C271        N278   1.428       .  S
C272       C1569   1.404   1_455  A
C272        H277   1.084       .  S
C273        C274   1.412       .  A
C273       C1568   1.404       .  A
C273       C1318   1.491       .  S
C274        N275   1.429       .  S
N275        O279   1.261       .  A
N275        O280   1.262       .  A
N278        O282   1.262       .  A
N278        O281   1.260       .  A
C283        C284   1.401       .  A
C283        C288   1.400       .  A
C283        H290   1.084       .  S
C284       C1581   1.414       .  A
C284       C1317   1.492       .  S
C285        C286   1.400       .  A
C285       C1580   1.414   1_455  A
C285        N292   1.429       .  S
C286       C1583   1.402   1_455  A
C286        H291   1.084       .  S
C287        C288   1.412       .  A
C287       C1582   1.402       .  A
C288        N289   1.426       .  S
N289        O293   1.260       .  A
N289        O294   1.262       .  A
N292        O296   1.262       .  A
N292        O295   1.261       .  A
C297        C302   1.404       .  A
C297       C1594   1.405       .  A
C297        H304   1.084       .  S
C298        C299   1.420       .  A
C298       C1593   1.404       .  A
C299        C300   1.400       .  A
C299        N306   1.427       .  S
C300        C301   1.401       .  A
C300        H305   1.084       .  S
C301       C1598   1.416       .  A
C301       C1320   1.501       .  S
C302       C1597   1.415       .  A
C302        N303   1.428       .  S
N303        O307   1.262       .  A
N303        O308   1.261       .  A
N306        O310   1.260       .  A
N306        O309   1.262       .  A
C311        C312   1.404       .  A
C311        C316   1.399       .  A
C311        H318   1.084       .  S
C312       C1609   1.413       .  A
C312       C1319   1.498       .  S
C313        C314   1.400       .  A
C313       C1608   1.413       .  A
C313        N320   1.431       .  S
C314       C1611   1.400       .  A
C314        H319   1.074       .  S
C315        C316   1.416       .  A
C315       C1610   1.401       .  A
C316        N317   1.429       .  S
N317        O321   1.260       .  A
N317        O322   1.262       .  A
N320        O324   1.262       .  A
N320        O323   1.262       .  A
N325        C330   1.355       .  A
N325        C329   1.354       .  A
N325        H357   1.040   1_455  S
N326        C333   1.348   1_455  A
N326        C334   1.350       .  A
N327        C332   1.354       .  A
N327        C331   1.356       .  A
N327        H358   1.040       .  S
N328        C335   1.353       .  A
N328        C336   1.352       .  A
C329        C337   1.386       .  A
C329        C345   1.417       .  A
C330        C346   1.418       .  A
C330        C338   1.388       .  A
C331        C339   1.386       .  A
C331        C348   1.420       .  A
C332        C347   1.420       .  A
C332        C340   1.388       .  A
C333        C345   1.408   1_655  A
C333        C341   1.386       .  A
C334        C348   1.411       .  A
C334        C342   1.387   1_455  A
C335        C343   1.384   1_455  A
C335        C346   1.412       .  A
C336        C344   1.388   1_455  A
C336        C347   1.418       .  A
C337        C338   1.377       .  A
C337        H349   1.082       .  S
C338        H350   1.082       .  S
C339        C340   1.379       .  A
C339        H351   1.082       .  S
C340        H352   1.082       .  S
C341        C342   1.374       .  A
C341        H353   1.082       .  S
C342        H354   1.082       .  S
C343        C344   1.371       .  A
C343        H355   1.081       .  S
C344        H356   1.081       .  S
C345       C1904   1.489   1_455  S
C346       C1893   1.491       .  S
C347       C1932   1.497       .  S
C348       C1921   1.498       .  S
O359        C370   1.286       .  A
O360        C371   1.290       .  A
O361        C372   1.291       .  A
O361       Eu367   2.462       .  S
O362        C373   1.291       .  A
O362      Eu1663   2.456   1_565  S
O363        C373   1.294       .  A
O363       Eu721   2.479       .  S
O364       C1020   1.291       .  A
O365        C371   1.298       .  A
O365      Eu1015   2.491       .  S
O366        C370   1.299       .  A
O366       Eu367   2.500       .  S
Eu367      O1658   2.458   1_545  S
Eu367      O1013   2.489   1_545  S
Eu367      O1673   2.355       .  S
Eu367       O369   2.356       .  S
Eu367      O2312   2.353   1_545  S
Eu367      O1023   2.367   1_545  S
O368      Eu2311   2.352       .  S
O368      Eu1366   2.355   1_455  S
O369       Eu720   2.358       .  S
C370        C639   1.489       .  S
C371        C622   1.494       .  S
C372        C580   1.471   1_545  S
C372       O1012   1.292       .  A
C373        C566   1.483       .  S
H374        O375   0.961       .  S
O375      Eu1015   2.364       .  S
H376        O377   0.959       .  S
O377      Eu1663   2.354       .  S
O377      Eu1367   2.364   1_455  S
O377       Eu721   2.358   1_545  S
O378        C401   1.291       .  A
O378       Eu394   2.460       .  S
O379        C402   1.289       .  A
O379       Eu395   2.457       .  S
O380        C403   1.290       .  A
O380       Eu396   2.462       .  S
O381        C404   1.292       .  A
O381       Eu397   2.468       .  S
O382        C405   1.293       .  A
O382      Eu1045   2.474   1_545  S
O383        C406   1.289       .  A
O383      Eu1044   2.456       .  S
O384        C407   1.288       .  A
O384       Eu398   2.443       .  S
O385        C408   1.289       .  A
O385      Eu1694   2.452   1_455  S
O386        C407   1.294       .  A
O386       Eu396   2.470   1_556  S
O387        C408   1.292       .  A
O387       Eu397   2.455       .  S
O388        C403   1.294       .  A
O388       Eu394   2.475   1_554  S
O389        C406   1.296       .  A
O389       Eu395   2.494   1_554  S
O390        C405   1.292       .  A
O390      Eu1691   2.464   1_455  S
O391        C404   1.294       .  A
O391      Eu1690   2.478   1_455  S
O392        C401   1.293       .  A
O392       Eu398   2.467       .  S
O393        C402   1.292       .  A
O393      Eu1046   2.469       .  S
Eu394      O1687   2.477       .  S
Eu394      O1340   2.356   1_556  S
Eu394      O1708   2.358       .  S
Eu394       O400   2.353       .  S
Eu395      O1686   2.465       .  S
Eu395      O1349   2.364   1_556  S
Eu395      O1695   2.349       .  S
Eu395       O410   2.350       .  S
Eu396      O1031   2.461       .  S
Eu396       O693   2.358       .  S
Eu396      O1058   2.361   1_554  S
Eu396       O400   2.355   1_554  S
Eu397       O687   2.471   1_556  S
Eu397      O1030   2.465       .  S
Eu397       O701   2.358   1_556  S
Eu397      O1047   2.352       .  S
Eu397       O412   2.357       .  S
Eu398      O1681   2.450       .  S
Eu398      O1041   2.470       .  S
Eu398      O2343   2.344       .  S
Eu398      O1058   2.360       .  S
Eu398      O1708   2.361       .  S
Eu398       O400   2.359       .  S
O399      Eu1691   2.349   1_455  S
O399      Eu1045   2.352   1_545  S
O399      Eu2342   2.345   1_455  S
C401        C611   1.476       .  S
C402        C594   1.473       .  S
C403        C485   1.479       .  S
C404        C510   1.487       .  S
C405        C524   1.482       .  S
C406        C496   1.480       .  S
C407        C538   1.476       .  S
C408        C555   1.481       .  S
H409        O410   0.969       .  S
O410      Eu1044   2.363   1_556  S
O410      Eu1046   2.361       .  S
H411        O412   0.969       .  S
O412      Eu1690   2.358   1_455  S
O412      Eu1694   2.360   1_455  S
N413        C418   1.349   1_565  A
N413        C417   1.347   1_565  A
N413        H445   1.043       .  S
N414        C421   1.351       .  A
N414        C422   1.352       .  A
N415        C420   1.349       .  A
N415        C419   1.351       .  A
N415        H446   1.042       .  S
N416        C423   1.349       .  A
N416        C424   1.346       .  A
C417        C425   1.389       .  A
C417        C433   1.410   1_545  A
C418        C434   1.405   1_545  A
C418        C426   1.385       .  A
C419        C427   1.387   1_565  A
C419        C436   1.410       .  A
C420        C435   1.408       .  A
C420        C428   1.387   1_565  A
C421        C433   1.417       .  A
C421        C429   1.387       .  A
C422        C436   1.415       .  A
C422        C430   1.385       .  A
C423        C431   1.386       .  A
C423        C434   1.409       .  A
C424        C432   1.385       .  A
C424        C435   1.405       .  A
C425        C426   1.378       .  A
C425        H437   1.082       .  S
C426        H438   1.082       .  S
C427        C428   1.376       .  A
C427        H439   1.082       .  S
C428        H440   1.083       .  S
C429        C430   1.377       .  A
C429        H441   1.082       .  S
C430        H442   1.082       .  S
C431        C432   1.374       .  A
C431        H443   1.082       .  S
C432        H444   1.082       .  S
C433        C552   1.490       .  S
C434        C541   1.486   1_565  S
C435        C583   1.473       .  S
C436        C569   1.491       .  S
N447        C452   1.352       .  A
N447        C451   1.353       .  A
N447        H479   1.039   1_554  S
N448        C455   1.348   1_554  A
N448        C456   1.348   1_554  A
N449        C454   1.351       .  A
N449        C453   1.352       .  A
N449        H480   1.040   1_554  S
N450        C457   1.352       .  A
N450        C458   1.351       .  A
C451        C459   1.388       .  A
C451        C467   1.415       .  A
C452        C468   1.413       .  A
C452        C460   1.386       .  A
C453        C461   1.387       .  A
C453        C470   1.412   1_554  A
C454        C469   1.410       .  A
C454        C462   1.386       .  A
C455        C467   1.410   1_556  A
C455        C463   1.387       .  A
C456        C470   1.409       .  A
C456        C464   1.386       .  A
C457        C465   1.386       .  A
C457        C468   1.413       .  A
C458        C466   1.386       .  A
C458        C469   1.412       .  A
C459        C460   1.377       .  A
C459        H471   1.082       .  S
C460        H472   1.082       .  S
C461        C462   1.376       .  A
C461        H473   1.082       .  S
C462        H474   1.082       .  S
C463        C464   1.376       .  A
C463        H475   1.082       .  S
C464        H476   1.082       .  S
C465        C466   1.373       .  A
C465        H477   1.082       .  S
C466        H478   1.082       .  S
C467        C513   1.485       .  S
C468        C482   1.488       .  S
C469        C499   1.483       .  S
C470        C527   1.483       .  S
C481        C482   1.400   1_556  A
C481        C486   1.399       .  A
C481        H488   1.084       .  S
C483        C484   1.400       .  A
C483        N490   1.429       .  S
C484        H489   1.077       .  S
C485        C486   1.410   1_554  A
C486        N487   1.424       .  S
N487        O491   1.260       .  A
N487        O492   1.261       .  A
N490        O494   1.262       .  A
N490        O493   1.262       .  A
C495        C500   1.403       .  A
C495        H502   1.084       .  S
C496        C497   1.415       .  A
C497        C498   1.402       .  A
C497        N504   1.429       .  S
C498        C499   1.399       .  A
C498        H503   1.084       .  S
C500        N501   1.430       .  S
N501        O505   1.262       .  A
N504        O508   1.262       .  A
C509        C514   1.405       .  A
C509        H516   1.084       .  S
C510        C511   1.414       .  A
C511        C512   1.397       .  A
C511        N518   1.423       .  S
C512        C513   1.395   1_556  A
C512        H517   1.084       .  S
C514        N515   1.429       .  S
N515        O519   1.262       .  A
N518        O522   1.262       .  A
C523        C528   1.400       .  A
C523        H530   1.084       .  S
C524        C525   1.415       .  A
C525        C526   1.401       .  A
C525        N532   1.428       .  S
C526        C527   1.399       .  A
C526        H531   1.084       .  S
C528        N529   1.430       .  S
N529        O534   1.262       .  A
N532        O535   1.261       .  A
C537       C1186   1.397   1_565  A
C537        C542   1.397       .  A
C537        H544   1.075       .  S
C538       C1185   1.398       .  A
C538        C539   1.409       .  A
C539        C540   1.395       .  A
C539        N546   1.423       .  S
C540       C1189   1.399       .  A
C540        H545   1.084       .  S
C541       C1188   1.400       .  A
C541        C542   1.411   1_545  A
C542        N543   1.428       .  S
N543        O547   1.262       .  A
N543       O1196   1.261       .  A
N546        O550   1.260       .  A
N546       O1197   1.262       .  A
O548       N1191   1.261       .  A
O549       N1194   1.262       .  A
C551        C552   1.404   1_545  A
C551        C556   1.399       .  A
C551        H558   1.084       .  S
C552       C1201   1.413       .  A
C553       C1200   1.411       .  A
C553        C554   1.394       .  A
C553        N560   1.430       .  S
C554        C555   1.400       .  A
C554        H559   1.077       .  S
C555       C1204   1.413       .  A
C556       C1203   1.413   1_545  A
C556        N557   1.428       .  S
N557        O561   1.261       .  A
N557        O562   1.262       .  A
N560        O564   1.262       .  A
N560        O563   1.261       .  A
C565       C1214   1.404       .  A
C565        C570   1.405       .  A
C565        H572   1.084       .  S
C566       C1213   1.405       .  A
C566        C567   1.410   1_565  A
C567        C568   1.394       .  A
C567        N574   1.422       .  S
C568        C569   1.397   1_545  A
C568        H573   1.085       .  S
C569       C1218   1.415       .  A
C570       C1217   1.416       .  A
C570        N571   1.429       .  S
N571        O575   1.262       .  A
N571        O576   1.262       .  A
N574        O578   1.262       .  A
N574        O577   1.262       .  A
C579       C1228   1.406       .  A
C579        C584   1.402       .  A
C579        H586   1.084       .  S
C580       C1227   1.406   1_565  A
C580        C581   1.411       .  A
C581        C582   1.393       .  A
C581        N588   1.427       .  S
C582        C583   1.395       .  A
C582        H587   1.084       .  S
C583       C1232   1.407   1_565  A
C584       C1231   1.406       .  A
C584        N585   1.430       .  S
N585        O589   1.262       .  A
N585       O1238   1.262       .  A
N588        O592   1.262       .  A
N588       O1239   1.262       .  A
O590       N1233   1.262       .  A
O591       N1236   1.262       .  A
C593        C594   1.397       .  A
C593        C598   1.400       .  A
C593        H600   1.079       .  S
C594       C1891   1.409       .  A
C595       C1890   1.409       .  A
C595        C596   1.402       .  A
C595        N602   1.427       .  S
C596       C1893   1.403       .  A
C596        H601   1.084       .  S
C597       C1892   1.403       .  A
C597        C598   1.411       .  A
C597       C1642   1.490       .  S
C598        N599   1.429       .  S
N599        O603   1.261       .  A
N599        O604   1.262       .  A
N602        O606   1.262       .  A
N602        O605   1.261       .  A
C607        C608   1.400       .  A
C607        C612   1.399       .  A
C607        H614   1.084       .  S
C608       C1905   1.412       .  A
C608       C1641   1.488       .  S
C609       C1904   1.412   1_455  A
C609        C610   1.400       .  A
C609        N616   1.429       .  S
C610       C1907   1.402   1_455  A
C610        H615   1.084       .  S
C611       C1906   1.402       .  A
C611        C612   1.411       .  A
C612        N613   1.425       .  S
N613        O617   1.260       .  A
N613        O618   1.262       .  A
N616        O620   1.262       .  A
N616        O619   1.262       .  A
C621       C1918   1.406       .  A
C621        C626   1.405       .  A
C621        H628   1.084       .  S
C622       C1917   1.406       .  A
C622        C623   1.418       .  A
C623        C624   1.399       .  A
C623        N630   1.425       .  S
C624        C625   1.399       .  A
C624        H629   1.084       .  S
C625       C1922   1.416       .  A
C625       C1644   1.499       .  S
C626       C1921   1.415       .  A
C626        N627   1.429       .  S
N627        O631   1.262       .  A
N627        O632   1.262       .  A
N630        O634   1.259       .  A
N630        O633   1.262       .  A
C635        C636   1.403       .  A
C635        C640   1.399       .  A
C635        H642   1.084       .  S
C636       C1933   1.414       .  A
C636       C1643   1.498       .  S
C637       C1932   1.413       .  A
C637        C638   1.400       .  A
C637        N644   1.431       .  S
C638       C1935   1.400       .  A
C638        H643   1.072       .  S
C639       C1934   1.400       .  A
C639        C640   1.416       .  A
C640        N641   1.428       .  S
N641        O645   1.260       .  A
N641        O646   1.262       .  A
N644        O648   1.262       .  A
N644        O647   1.262       .  A
N649        C654   1.355       .  A
N649        C653   1.355       .  A
N649        H681   1.040   1_455  S
N650        C657   1.349   1_455  A
N650        C658   1.350       .  A
N651        C656   1.354       .  A
N651        C655   1.355       .  A
N651        H682   1.040   1_455  S
N652        C659   1.353   1_455  A
N652        C660   1.353       .  A
C653        C661   1.385       .  A
C653        C669   1.418       .  A
C654        C670   1.421       .  A
C654        C662   1.389       .  A
C655        C663   1.386       .  A
C655        C672   1.419       .  A
C656        C671   1.420       .  A
C656        C664   1.388       .  A
C657        C669   1.409   1_655  A
C657        C665   1.386       .  A
C658        C672   1.411       .  A
C658        C666   1.387   1_455  A
C659        C667   1.385       .  A
C659        C670   1.414   1_655  A
C660        C668   1.387   1_455  A
C660        C671   1.418       .  A
C661        C662   1.376       .  A
C661        H673   1.082       .  S
C662        H674   1.081       .  S
C663        C664   1.378       .  A
C663        H675   1.082       .  S
C664        H676   1.082       .  S
C665        C666   1.374       .  A
C665        H677   1.082       .  S
C666        H678   1.082       .  S
C667        C668   1.371       .  A
C667        H679   1.080       .  S
C668        H680   1.081       .  S
C669       C2228   1.491   1_455  S
C670       C2217   1.493       .  S
C671       C2256   1.499       .  S
C672       C2245   1.494       .  S
O683        C694   1.286       .  A
O683      Eu1043   2.432   1_554  S
O684        C695   1.289       .  A
O684      Eu1042   2.450   1_554  S
O685        C696   1.292       .  A
O685       Eu691   2.462       .  S
O686        C697   1.291       .  A
O686      Eu1987   2.457       .  S
O687        C697   1.293       .  A
O688      Eu1044   2.464   1_565  S
O689        C695   1.297       .  A
O690        C694   1.299       .  A
O690       Eu691   2.500       .  S
Eu691      O1982   2.459       .  S
Eu691      O1997   2.354       .  S
Eu691       O693   2.356       .  S
Eu691      O1340   2.354       .  S
O692      Eu1339   2.351   1_565  S
O692      Eu1045   2.347   1_554  S
O692      Eu2338   2.356   1_454  S
O693      Eu1043   2.353   1_554  S
C694        C963   1.490       .  S
C695        C946   1.491       .  S
C696        C904   1.470       .  S
C697        C890   1.479       .  S
H698        O699   0.969       .  S
O699      Eu1044   2.359   1_565  S
O699      Eu1042   2.354   1_554  S
H700        O701   0.970       .  S
O701      Eu1987   2.355       .  S
O701      Eu2339   2.362   1_454  S
O702        C725   1.291       .  A
O702       Eu718   2.464       .  S
O703        C726   1.289       .  A
O703       Eu719   2.454       .  S
O704        C727   1.290       .  A
O704       Eu720   2.462   1_565  S
O705        C728   1.292       .  A
O705       Eu721   2.467       .  S
O706        C729   1.292       .  A
O707        C730   1.289       .  A
O708        C731   1.288       .  A
O708       Eu722   2.443       .  S
O709        C732   1.289   1_545  A
O709      Eu2018   2.450   1_455  S
O710        C731   1.294       .  A
O710       Eu720   2.468       .  S
O711        C732   1.292       .  A
O711       Eu721   2.457       .  S
O712        C727   1.294       .  A
O712       Eu718   2.478       .  S
O713        C730   1.296       .  A
O713       Eu719   2.492       .  S
O714        C729   1.292       .  A
O714      Eu2015   2.460   1_455  S
O715        C728   1.294       .  A
O715      Eu2014   2.475   1_455  S
O716        C725   1.293       .  A
O716       Eu722   2.470   1_565  S
O717        C726   1.293       .  A
Eu718      O1008   2.448       .  S
Eu718      O2011   2.478       .  S
Eu718      O2312   2.357       .  S
Eu718      O1023   2.357       .  S
Eu718      O2032   2.359       .  S
Eu718       O724   2.353       .  S
Eu719      O1007   2.434       .  S
Eu719      O2010   2.462       .  S
Eu719      O1017   2.352       .  S
Eu719      O2321   2.365       .  S
Eu719      O2019   2.352       .  S
Eu719       O734   2.351       .  S
Eu720      O1012   2.464       .  S
Eu720      O1023   2.360   1_545  S
Eu720       O724   2.356   1_545  S
Eu721      O1016   2.346       .  S
Eu721       O736   2.361       .  S
Eu722      O2005   2.447       .  S
Eu722      O1371   2.344       .  S
Eu722      O2032   2.361   1_545  S
Eu722       O724   2.358   1_545  S
O723      Eu2015   2.352   1_455  S
O723      Eu1370   2.344   1_455  S
C725        C935   1.478       .  S
C726        C918   1.472       .  S
C727        C809   1.480       .  S
C728        C834   1.485       .  S
C729        C848   1.478       .  S
C730        C820   1.479       .  S
C731        C862   1.476       .  S
C732        C879   1.481       .  S
H733        O734   0.962       .  S
H735        O736   0.963       .  S
O736      Eu2014   2.359   1_455  S
O736      Eu2018   2.360   1_465  S
N737        C742   1.350       .  A
N737        C741   1.347       .  A
N737        H769   1.043       .  S
N738        C745   1.351       .  A
N738        C746   1.352       .  A
N739        C744   1.348       .  A
N739        C743   1.350       .  A
N739        H770   1.041       .  S
N740        C747   1.350       .  A
N740        C748   1.347       .  A
C741        C749   1.389       .  A
C741        C757   1.411       .  A
C742        C758   1.406       .  A
C742        C750   1.385       .  A
C743        C751   1.387       .  A
C743        C760   1.409       .  A
C744        C759   1.407       .  A
C744        C752   1.387       .  A
C745        C757   1.416       .  A
C745        C753   1.387       .  A
C746        C760   1.414       .  A
C746        C754   1.385       .  A
C747        C755   1.387       .  A
C747        C758   1.411       .  A
C748        C756   1.385       .  A
C748        C759   1.406       .  A
C749        C750   1.377       .  A
C749        H761   1.082       .  S
C750        H762   1.082       .  S
C751        C752   1.375       .  A
C751        H763   1.082       .  S
C752        H764   1.083       .  S
C753        C754   1.376       .  A
C753        H765   1.082       .  S
C754        H766   1.082       .  S
C755        C756   1.373       .  A
C755        H767   1.082       .  S
C756        H768   1.082       .  S
C757        C876   1.488       .  S
C758        C865   1.488       .  S
C759        C907   1.473       .  S
C760        C893   1.486       .  S
N771        C776   1.351       .  A
N771        C775   1.353       .  A
N771        H803   1.039       .  S
N772        C779   1.347       .  A
N772        C780   1.347       .  A
N773        C778   1.350       .  A
N773        C777   1.351       .  A
N773        H804   1.040       .  S
N774        C781   1.351       .  A
N774        C782   1.351       .  A
C775        C783   1.387       .  A
C775        C791   1.414       .  A
C776        C792   1.414       .  A
C776        C784   1.386       .  A
C777        C785   1.387       .  A
C777        C794   1.410       .  A
C778        C793   1.410       .  A
C778        C786   1.387       .  A
C779        C791   1.407       .  A
C779        C787   1.387       .  A
C780        C794   1.407       .  A
C780        C788   1.386       .  A
C781        C789   1.386       .  A
C781        C792   1.413       .  A
C782        C790   1.385       .  A
C782        C793   1.412       .  A
C783        C784   1.377       .  A
C783        H795   1.082       .  S
C784        H796   1.082       .  S
C785        C786   1.375       .  A
C785        H797   1.082       .  S
C786        H798   1.082       .  S
C787        C788   1.375       .  A
C787        H799   1.082       .  S
C788        H800   1.083       .  S
C789        C790   1.373       .  A
C789        H801   1.082       .  S
C790        H802   1.082       .  S
C791        C837   1.483       .  S
C792        C806   1.487       .  S
C793        C823   1.483       .  S
C794        C851   1.480       .  S
C805        C806   1.400       .  A
C805        C810   1.400       .  A
C805        H812   1.084       .  S
C806       C1131   1.408       .  A
C807       C1130   1.410       .  A
C807        C808   1.401       .  A
C807        N814   1.429       .  S
C808       C1133   1.399       .  A
C808        H813   1.077       .  S
C809       C1132   1.399       .  A
C809        C810   1.409       .  A
C810        N811   1.423       .  S
N811        O815   1.260       .  A
N811        O816   1.261       .  A
N814        O818   1.262       .  A
N814        O817   1.262       .  A
C819       C1144   1.405   1_556  A
C819        C824   1.402       .  A
C819        H826   1.084       .  S
C820       C1143   1.405       .  A
C820        C821   1.415       .  A
C821        C822   1.402       .  A
C821        N828   1.429       .  S
C822        C823   1.399       .  A
C822        H827   1.084       .  S
C823       C1148   1.406       .  A
C824       C1147   1.406   1_556  A
C824        N825   1.430       .  S
N825        O829   1.262       .  A
N825       O1154   1.262       .  A
N828        O832   1.262       .  A
N828       O1155   1.261       .  A
O830       N1149   1.262       .  A
O831       N1152   1.261       .  A
C833       C1158   1.408   1_554  A
C833        C838   1.405       .  A
C833        H840   1.084       .  S
C834       C1157   1.408       .  A
C834        C835   1.413       .  A
C835        C836   1.395       .  A
C835        N842   1.423       .  S
C836        C837   1.394       .  A
C836        H841   1.084       .  S
C837       C1162   1.409       .  A
C838       C1161   1.408   1_554  A
C838        N839   1.429       .  S
N839        O843   1.262       .  A
N839       O1168   1.261       .  A
N842        O846   1.262       .  A
N842       O1169   1.262       .  A
O844       N1163   1.261       .  A
O845       N1166   1.261       .  A
C847       C1172   1.406   1_554  A
C847        C852   1.399       .  A
C847        H854   1.084       .  S
C848       C1171   1.406       .  A
C848        C849   1.415       .  A
C849        C850   1.399       .  A
C849        N856   1.428       .  S
C850        C851   1.399       .  A
C850        H855   1.084       .  S
C851       C1176   1.406       .  A
C852       C1175   1.407   1_554  A
C852        N853   1.430       .  S
N853       O1181   1.261       .  A
N853        O858   1.262       .  A
N856       O1184   1.262       .  A
N856        O859   1.261       .  A
O857       N1177   1.261       .  A
O860       N1180   1.262       .  A
C861        C866   1.398       .  A
C861        H868   1.076       .  S
C862        C863   1.410       .  A
C863        C864   1.396       .  A
C863        N870   1.424       .  S
C864        H869   1.084       .  S
C865        C866   1.412       .  A
C866        N867   1.428       .  S
N867        O871   1.262       .  A
N870        O874   1.260       .  A
C875        C876   1.402       .  A
C875        C880   1.398       .  A
C875        H882   1.084       .  S
C877        C878   1.393       .  A
C877        N884   1.430       .  S
C878        C879   1.399       .  A
C878        H883   1.076       .  S
C880        N881   1.427       .  S
N881        O885   1.260       .  A
N881        O886   1.262       .  A
N884        O888   1.262       .  A
N884        O887   1.261       .  A
C889        C894   1.406       .  A
C889        H896   1.084       .  S
C890        C891   1.409       .  A
C891        C892   1.393       .  A
C891        N898   1.422       .  S
C892        C893   1.396       .  A
C892        H897   1.085       .  S
C894        N895   1.429       .  S
N895        O899   1.262       .  A
N895        O900   1.262       .  A
N898        O902   1.262       .  A
N898        O901   1.262       .  A
C903        C908   1.402       .  A
C903        H910   1.084       .  S
C904        C905   1.410       .  A
C905        C906   1.393       .  A
C905        N912   1.427       .  S
C906        C907   1.395       .  A
C906        H911   1.084       .  S
C908        N909   1.430       .  S
N909        O913   1.262       .  A
N912        O916   1.262       .  A
C917        C918   1.397       .  A
C917        C922   1.400       .  A
C917        H924   1.077       .  S
C918       C2215   1.408       .  A
C919       C2214   1.408       .  A
C919        C920   1.401       .  A
C919        N926   1.427       .  S
C920       C2217   1.404       .  A
C920        H925   1.084       .  S
C921       C2216   1.404       .  A
C921        C922   1.412       .  A
C921       C1966   1.490       .  S
C922        N923   1.430       .  S
N923        O927   1.261       .  A
N923        O928   1.262       .  A
N926        O930   1.262       .  A
N926        O929   1.260       .  A
C931        C932   1.401       .  A
C931        C936   1.400       .  A
C931        H938   1.084       .  S
C932       C2229   1.412       .  A
C932       C1965   1.489       .  S
C933       C2228   1.412   1_455  A
C933        C934   1.400       .  A
C933        N940   1.429       .  S
C934       C2231   1.402   1_455  A
C934        H939   1.084       .  S
C935       C2230   1.402       .  A
C935        C936   1.411       .  A
C936        N937   1.425       .  S
N937        O941   1.260       .  A
N937        O942   1.262       .  A
N940        O944   1.262       .  A
N940        O943   1.262       .  A
C945       C2242   1.406       .  A
C945        C950   1.405       .  A
C945        H952   1.084       .  S
C946       C2241   1.406       .  A
C946        C947   1.417       .  A
C947        C948   1.398       .  A
C947        N954   1.425       .  S
C948        C949   1.399       .  A
C948        H953   1.084       .  S
C949       C2246   1.415       .  A
C949       C1968   1.496       .  S
C950       C2245   1.414       .  A
C950        N951   1.429       .  S
N951        O955   1.262       .  A
N951        O956   1.262       .  A
N954        O958   1.259       .  A
N954        O957   1.262       .  A
C959        C960   1.403       .  A
C959        C964   1.400       .  A
C959        H966   1.084       .  S
C960       C2257   1.413       .  A
C960       C1967   1.498       .  S
C961       C2256   1.413       .  A
C961        C962   1.400       .  A
C961        N968   1.431       .  S
C962       C2259   1.399       .  A
C962        H967   1.072       .  S
C963       C2258   1.400       .  A
C963        C964   1.417       .  A
C964        N965   1.428       .  S
N965        O969   1.260       .  A
N965        O970   1.262       .  A
N968        O972   1.262       .  A
N968        O971   1.262       .  A
N973        C978   1.355   1_655  A
N973        C977   1.356   1_655  A
N973       H1005   1.039       .  S
N974        C981   1.349   1_455  A
N974        C982   1.350       .  A
N975        C980   1.354       .  A
N975        C979   1.355       .  A
N975       H1006   1.040   1_455  S
N976        C983   1.353   1_455  A
N976        C984   1.353       .  A
C977        C985   1.386       .  A
C977        C993   1.419   1_455  A
C978        C994   1.421   1_455  A
C978        C986   1.389       .  A
C979        C987   1.386       .  A
C979        C996   1.419       .  A
C980        C995   1.420       .  A
C980        C988   1.388       .  A
C981        C993   1.409       .  A
C981        C989   1.385       .  A
C982        C996   1.411       .  A
C982        C990   1.387   1_455  A
C983        C991   1.385       .  A
C983        C994   1.414       .  A
C984        C992   1.387   1_455  A
C984        C995   1.419       .  A
C985        C986   1.376       .  A
C985        H997   1.082       .  S
C986        H998   1.081       .  S
C987        C988   1.378       .  A
C987        H999   1.082       .  S
C988       H1000   1.082       .  S
C989        C990   1.374       .  A
C989       H1001   1.082       .  S
C990       H1002   1.082       .  S
C991        C992   1.371       .  A
C991       H1003   1.080       .  S
C992       H1004   1.081       .  S
C993       C2552   1.493       .  S
C994       C2541   1.491       .  S
C995       C2580   1.499       .  S
C996       C2569   1.495       .  S
O1007      C1018   1.286       .  A
O1008      C1019   1.289       .  A
O1009      C1020   1.292       .  A
O1009     Eu1015   2.462       .  S
O1010      C1021   1.290       .  A
O1010     Eu2311   2.453       .  S
O1011      C1021   1.294       .  A
O1013      C1019   1.297       .  A
O1014      C1018   1.299       .  A
O1014     Eu1015   2.497       .  S
Eu1015     O2306   2.455       .  S
Eu1015     O2321   2.356       .  S
Eu1015     O1017   2.355       .  S
Eu1015     O1664   2.354       .  S
O1016     Eu1663   2.351   1_565  S
O1016     Eu2014   2.356   1_455  S
C1018      C1287   1.489       .  S
C1019      C1270   1.489       .  S
C1020      C1228   1.470       .  S
C1021      C1214   1.482       .  S
H1022      O1023   0.962       .  S
H1024      O1025   0.956       .  S
O1025     Eu2311   2.355       .  S
O1025     Eu2015   2.365   1_455  S
O1026      C1049   1.291       .  A
O1026     Eu1042   2.460       .  S
O1027      C1050   1.289       .  A
O1027     Eu1043   2.454       .  S
O1028      C1051   1.290       .  A
O1028     Eu1044   2.458   1_565  S
O1029      C1052   1.293       .  A
O1029     Eu1045   2.473       .  S
O1030      C1053   1.292       .  A
O1031      C1054   1.290       .  A
O1032      C1055   1.288       .  A
O1032     Eu1046   2.443       .  S
O1033      C1056   1.287       .  A
O1033     Eu2342   2.444   1_455  S
O1034      C1055   1.294       .  A
O1034     Eu1044   2.469   1_556  S
O1035      C1056   1.292       .  A
O1035     Eu1045   2.451   1_545  S
O1036      C1051   1.294       .  A
O1036     Eu1042   2.473   1_554  S
O1037      C1054   1.295       .  A
O1037     Eu1043   2.486   1_554  S
O1038      C1053   1.292       .  A
O1038     Eu2339   2.462   1_455  S
O1039      C1052   1.294       .  A
O1039     Eu2338   2.475   1_455  S
O1040      C1049   1.293       .  A
O1040     Eu1046   2.470   1_565  S
O1041      C1050   1.292       .  A
Eu1042     O2335   2.476       .  S
Eu1042     O1988   2.356   1_556  S
Eu1042     O2356   2.357       .  S
Eu1042     O1048   2.355       .  S
Eu1043     O2334   2.461       .  S
Eu1043     O1997   2.362   1_556  S
Eu1043     O2343   2.351       .  S
Eu1043     O1058   2.351       .  S
Eu1044     O1048   2.355   1_544  S
Eu1045     O1060   2.360       .  S
Eu1046     O2329   2.444       .  S
Eu1046     O1695   2.344       .  S
Eu1046     O2356   2.360   1_545  S
Eu1046     O1048   2.358   1_545  S
O1047     Eu2339   2.350   1_455  S
O1047     Eu1694   2.344   1_455  S
C1049      C1259   1.477       .  S
C1050      C1242   1.473       .  S
C1051      C1133   1.478       .  S
C1052      C1158   1.486       .  S
C1053      C1172   1.479       .  S
C1054      C1144   1.479       .  S
C1055      C1186   1.476       .  S
C1056      C1203   1.480   1_545  S
H1057      O1058   0.968       .  S
H1059      O1060   0.970       .  S
O1060     Eu2338   2.358   1_455  S
O1060     Eu2342   2.359   1_465  S
N1061      C1066   1.350       .  A
N1061      C1065   1.348       .  A
N1061      H1093   1.042       .  S
N1062      C1069   1.351       .  A
N1062      C1070   1.353       .  A
N1063      C1068   1.348       .  A
N1063      C1067   1.351       .  A
N1063      H1094   1.042       .  S
N1064      C1071   1.350       .  A
N1064      C1072   1.347       .  A
C1065      C1073   1.389       .  A
C1065      C1081   1.411       .  A
C1066      C1082   1.406       .  A
C1066      C1074   1.385       .  A
C1067      C1075   1.387       .  A
C1067      C1084   1.409       .  A
C1068      C1083   1.407       .  A
C1068      C1076   1.387       .  A
C1069      C1081   1.416       .  A
C1069      C1077   1.386       .  A
C1070      C1084   1.417       .  A
C1070      C1078   1.386       .  A
C1071      C1079   1.387       .  A
C1071      C1082   1.411       .  A
C1072      C1080   1.385       .  A
C1072      C1083   1.406       .  A
C1073      C1074   1.377       .  A
C1073      H1085   1.082       .  S
C1074      H1086   1.082       .  S
C1075      C1076   1.375       .  A
C1075      H1087   1.082       .  S
C1076      H1088   1.083       .  S
C1077      C1078   1.376       .  A
C1077      H1089   1.082       .  S
C1078      H1090   1.082       .  S
C1079      C1080   1.374       .  A
C1079      H1091   1.082       .  S
C1080      H1092   1.082       .  S
C1081      C1200   1.488       .  S
C1082      C1189   1.487       .  S
C1083      C1231   1.473       .  S
C1084      C1217   1.491       .  S
N1095      C1100   1.352       .  A
N1095      C1099   1.353       .  A
N1095      H1127   1.039   1_554  S
N1096      C1103   1.348       .  A
N1096      C1104   1.348       .  A
N1097      C1102   1.351   1_556  A
N1097      C1101   1.351   1_556  A
N1097      H1128   1.039       .  S
N1098      C1105   1.351       .  A
N1098      C1106   1.351       .  A
C1099      C1107   1.387       .  A
C1099      C1115   1.414   1_554  A
C1100      C1116   1.414       .  A
C1100      C1108   1.387       .  A
C1101      C1109   1.387       .  A
C1101      C1118   1.412   1_554  A
C1102      C1117   1.411       .  A
C1102      C1110   1.387       .  A
C1103      C1115   1.408       .  A
C1103      C1111   1.386       .  A
C1104      C1118   1.408       .  A
C1104      C1112   1.386       .  A
C1105      C1113   1.386   1_554  A
C1105      C1116   1.413       .  A
C1106      C1114   1.385   1_554  A
C1106      C1117   1.411       .  A
C1107      C1108   1.377       .  A
C1107      H1119   1.082       .  S
C1108      H1120   1.082       .  S
C1109      C1110   1.375       .  A
C1109      H1121   1.082       .  S
C1110      H1122   1.082       .  S
C1111      C1112   1.375       .  A
C1111      H1123   1.082       .  S
C1112      H1124   1.082       .  S
C1113      C1114   1.372       .  A
C1113      H1125   1.082       .  S
C1114      H1126   1.082       .  S
C1115      C1161   1.484       .  S
C1116      C1130   1.487       .  S
C1117      C1147   1.482       .  S
C1118      C1175   1.482       .  S
C1129      C1130   1.400   1_556  A
C1129      C1134   1.398       .  A
C1129      H1136   1.084       .  S
C1131      C1132   1.401       .  A
C1131      N1138   1.429       .  S
C1132      H1137   1.075       .  S
C1133      C1134   1.409   1_554  A
C1134      N1135   1.423       .  S
N1135      O1139   1.261       .  A
N1135      O1140   1.261       .  A
N1138      O1142   1.262       .  A
N1138      O1141   1.262       .  A
C1143      C1148   1.402       .  A
C1143      H1150   1.084       .  S
C1144      C1145   1.415       .  A
C1145      C1146   1.402       .  A
C1145      N1152   1.429       .  S
C1146      C1147   1.399       .  A
C1146      H1151   1.084       .  S
C1148      N1149   1.430       .  S
N1149      O1153   1.262       .  A
N1152      O1156   1.262       .  A
C1157      C1162   1.405       .  A
C1157      H1164   1.084       .  S
C1158      C1159   1.414       .  A
C1159      C1160   1.397       .  A
C1159      N1166   1.423       .  S
C1160      C1161   1.394       .  A
C1160      H1165   1.084       .  S
C1162      N1163   1.429       .  S
N1163      O1167   1.262       .  A
N1166      O1170   1.262       .  A
C1171      C1176   1.398       .  A
C1171      H1178   1.084       .  S
C1172      C1173   1.415       .  A
C1173      C1174   1.399       .  A
C1173      N1180   1.428       .  S
C1174      C1175   1.399       .  A
C1174      H1179   1.084       .  S
C1176      N1177   1.430       .  S
N1177      O1182   1.262       .  A
N1180      O1183   1.261       .  A
C1185      C1190   1.399       .  A
C1185      H1192   1.076       .  S
C1186      C1187   1.410       .  A
C1187      C1188   1.396       .  A
C1187      N1194   1.424       .  S
C1188      H1193   1.084       .  S
C1189      C1190   1.412       .  A
C1190      N1191   1.428       .  S
N1191      O1195   1.262       .  A
N1194      O1198   1.260       .  A
C1199      C1200   1.403       .  A
C1199      C1204   1.400       .  A
C1199      H1206   1.084       .  S
C1201      C1202   1.391       .  A
C1201      N1208   1.430       .  S
C1202      C1203   1.399       .  A
C1202      H1207   1.077       .  S
C1204      N1205   1.427       .  S
N1205      O1209   1.260       .  A
N1205      O1210   1.262       .  A
N1208      O1212   1.262       .  A
N1208      O1211   1.262       .  A
C1213      C1218   1.406       .  A
C1213      H1220   1.084       .  S
C1214      C1215   1.410       .  A
C1215      C1216   1.392       .  A
C1215      N1222   1.422       .  S
C1216      C1217   1.397       .  A
C1216      H1221   1.085       .  S
C1218      N1219   1.429       .  S
N1219      O1223   1.262       .  A
N1219      O1224   1.262       .  A
N1222      O1226   1.262       .  A
N1222      O1225   1.262       .  A
C1227      C1232   1.403       .  A
C1227      H1234   1.084       .  S
C1228      C1229   1.411       .  A
C1229      C1230   1.393       .  A
C1229      N1236   1.428       .  S
C1230      C1231   1.395       .  A
C1230      H1235   1.084       .  S
C1232      N1233   1.430       .  S
N1233      O1237   1.262       .  A
N1236      O1240   1.262       .  A
C1241      C1242   1.397       .  A
C1241      C1246   1.401       .  A
C1241      H1248   1.077       .  S
C1242      C2539   1.407       .  A
C1243      C2538   1.407   1_455  A
C1243      C1244   1.400       .  A
C1243      N1250   1.427       .  S
C1244      C2541   1.403   1_455  A
C1244      H1249   1.084       .  S
C1245      C2540   1.404       .  A
C1245      C1246   1.412       .  A
C1245      C2290   1.491       .  S
C1246      N1247   1.430       .  S
N1247      O1251   1.261       .  A
N1247      O1252   1.262       .  A
N1250      O1254   1.262       .  A
N1250      O1253   1.260       .  A
C1255      C1256   1.401       .  A
C1255      C1260   1.400       .  A
C1255      H1262   1.084       .  S
C1256      C2553   1.414       .  A
C1256      C2289   1.492       .  S
C1257      C2552   1.414   1_455  A
C1257      C1258   1.400       .  A
C1257      N1264   1.429       .  S
C1258      C2555   1.402   1_455  A
C1258      H1263   1.084       .  S
C1259      C2554   1.402       .  A
C1259      C1260   1.411       .  A
C1260      N1261   1.426       .  S
N1261      O1265   1.260       .  A
N1261      O1266   1.262       .  A
N1264      O1268   1.262       .  A
N1264      O1267   1.262       .  A
C1269      C2566   1.406       .  A
C1269      C1274   1.404       .  A
C1269      H1276   1.084       .  S
C1270      C2565   1.406       .  A
C1270      C1271   1.416       .  A
C1271      C1272   1.397       .  A
C1271      N1278   1.424       .  S
C1272      C1273   1.397       .  A
C1272      H1277   1.084       .  S
C1273      C2570   1.413       .  A
C1273      C2292   1.493       .  S
C1274      C2569   1.414       .  A
C1274      N1275   1.429       .  S
N1275      O1279   1.262       .  A
N1275      O1280   1.262       .  A
N1278      O1282   1.259       .  A
N1278      O1281   1.262       .  A
C1283      C1284   1.404       .  A
C1283      C1288   1.400       .  A
C1283      H1290   1.084       .  S
C1284      C2581   1.413       .  A
C1284      C2291   1.499       .  S
C1285      C2580   1.413       .  A
C1285      C1286   1.401       .  A
C1285      N1292   1.431       .  S
C1286      C2583   1.401       .  A
C1286      H1291   1.073       .  S
C1287      C2582   1.401       .  A
C1287      C1288   1.416       .  A
C1288      N1289   1.429       .  S
N1289      O1293   1.260       .  A
N1289      O1294   1.262       .  A
N1292      O1296   1.262       .  A
N1292      O1295   1.262       .  A
N1297      C1302   1.355       .  A
N1297      C1301   1.355       .  A
N1297      H1329   1.041       .  S
N1298      C1305   1.348       .  A
N1298      C1306   1.349       .  A
N1299      C1304   1.353       .  A
N1299      C1303   1.356       .  A
N1299      H1330   1.041       .  S
N1300      C1307   1.353       .  A
N1300      C1308   1.352       .  A
C1301      C1309   1.387       .  A
C1301      C1317   1.419       .  A
C1302      C1318   1.418       .  A
C1302      C1310   1.387       .  A
C1303      C1311   1.387       .  A
C1303      C1320   1.421       .  A
C1304      C1319   1.419       .  A
C1304      C1312   1.387       .  A
C1305      C1317   1.408       .  A
C1305      C1313   1.386       .  A
C1306      C1320   1.411       .  A
C1306      C1314   1.387       .  A
C1307      C1315   1.384       .  A
C1307      C1318   1.412       .  A
C1308      C1316   1.387       .  A
C1308      C1319   1.418       .  A
C1309      C1310   1.377       .  A
C1309      H1321   1.082       .  S
C1310      H1322   1.081       .  S
C1311      C1312   1.379       .  A
C1311      H1323   1.082       .  S
C1312      H1324   1.082       .  S
C1313      C1314   1.376       .  A
C1313      H1325   1.082       .  S
C1314      H1326   1.082       .  S
C1315      C1316   1.372       .  A
C1315      H1327   1.081       .  S
C1316      H1328   1.081       .  S
O1331      C1342   1.286       .  A
O1331     Eu1691   2.432   1_454  S
O1332      C1343   1.288       .  A
O1332     Eu1690   2.443   1_454  S
O1333      C1344   1.291   1_545  A
O1333     Eu1339   2.459   1_655  S
O1334      C1345   1.291       .  A
O1335      C1345   1.294       .  A
O1335     Eu2341   2.476   1_554  S
O1336      C1992   1.292       .  A
O1336     Eu1692   2.465       .  S
O1337      C1343   1.299       .  A
O1337     Eu1987   2.499       .  S
O1338      C1342   1.298       .  A
O1338     Eu1339   2.493       .  S
Eu1339     O1985   2.487   1_545  S
Eu1339     O1341   2.355   1_455  S
Eu1339     O1995   2.364   1_445  S
O1340     Eu1693   2.348   1_554  S
O1341     Eu1691   2.355   1_554  S
O1341     Eu2340   2.356       .  S
C1342      C1611   1.486       .  S
C1343      C1594   1.494       .  S
C1344      C1552   1.471       .  S
C1344      O1984   1.292       .  A
C1345      C1538   1.484       .  S
H1346      O1347   0.969       .  S
O1347     Eu1987   2.365   1_655  S
O1347     Eu1692   2.359       .  S
O1347     Eu1690   2.356   1_554  S
H1348      O1349   0.972       .  S
O1349     Eu2341   2.359   1_544  S
O1350      C1373   1.291       .  A
O1350     Eu1366   2.462       .  S
O1351      C1374   1.289       .  A
O1351     Eu1367   2.457   1_455  S
O1352      C1375   1.289       .  A
O1352     Eu1368   2.457       .  S
O1353      C1376   1.293       .  A
O1353     Eu1369   2.475       .  S
O1354      C1377   1.292       .  A
O1354     Eu2017   2.468   1_545  S
O1355      C1378   1.290       .  A
O1355     Eu2016   2.459       .  S
O1356      C1379   1.288       .  A
O1356     Eu1370   2.442       .  S
O1357      C1380   1.288       .  A
O1358      C1379   1.294       .  A
O1358     Eu1368   2.470       .  S
O1359      C1380   1.292       .  A
O1359     Eu1369   2.455       .  S
O1360      C1375   1.294       .  A
O1360     Eu1366   2.478       .  S
O1361      C1378   1.296       .  A
O1361     Eu1367   2.490       .  S
O1362      C1377   1.292       .  A
O1363      C1376   1.294       .  A
O1364      C1373   1.293       .  A
O1364     Eu1370   2.468       .  S
O1365      C1374   1.293   1_655  A
O1365     Eu2018   2.471       .  S
Eu1366     O1656   2.454   1_655  S
Eu1366     O1671   2.356       .  S
Eu1366     O1372   2.354       .  S
Eu1367     O1655   2.430   1_655  S
Eu1367     O1665   2.356       .  S
Eu1367     O1382   2.352       .  S
Eu1368     O1660   2.464       .  S
Eu1368     O2003   2.455       .  S
Eu1368     O2313   2.356       .  S
Eu1368     O1671   2.360       .  S
Eu1368     O2030   2.363       .  S
Eu1368     O1372   2.353       .  S
Eu1369     O2307   2.476       .  S
Eu1369     O2002   2.466       .  S
Eu1369     O1664   2.347       .  S
Eu1369     O2321   2.362       .  S
Eu1369     O2019   2.354       .  S
Eu1369     O1384   2.358       .  S
Eu1370     O2013   2.473       .  S
Eu1370     O2030   2.361       .  S
Eu1370     O1372   2.358       .  S
O1371     Eu2017   2.353   1_545  S
C1373      C1583   1.479       .  S
C1374      C1566   1.474       .  S
C1375      C1457   1.479       .  S
C1376      C1482   1.488       .  S
C1377      C1496   1.481       .  S
C1378      C1468   1.479       .  S
C1379      C1510   1.478       .  S
C1380      C1527   1.480       .  S
H1381      O1382   0.963       .  S
O1382     Eu2016   2.365       .  S
O1382     Eu2018   2.361       .  S
H1383      O1384   0.961       .  S
N1385      C1390   1.350   1_565  A
N1385      C1389   1.347   1_565  A
N1385      H1417   1.043       .  S
N1386      C1393   1.352       .  A
N1386      C1394   1.353       .  A
N1387      C1392   1.348       .  A
N1387      C1391   1.351       .  A
N1387      H1418   1.042       .  S
N1388      C1395   1.350       .  A
N1388      C1396   1.347       .  A
C1389      C1397   1.389       .  A
C1389      C1405   1.410   1_545  A
C1390      C1406   1.407   1_545  A
C1390      C1398   1.385       .  A
C1391      C1399   1.387   1_565  A
C1391      C1408   1.410       .  A
C1392      C1407   1.407       .  A
C1392      C1400   1.387   1_565  A
C1393      C1405   1.417       .  A
C1393      C1401   1.387       .  A
C1394      C1408   1.417       .  A
C1394      C1402   1.386       .  A
C1395      C1403   1.387       .  A
C1395      C1406   1.411       .  A
C1396      C1404   1.385       .  A
C1396      C1407   1.406       .  A
C1397      C1398   1.378       .  A
C1397      H1409   1.083       .  S
C1398      H1410   1.082       .  S
C1399      C1400   1.376       .  A
C1399      H1411   1.082       .  S
C1400      H1412   1.083       .  S
C1401      C1402   1.377       .  A
C1401      H1413   1.082       .  S
C1402      H1414   1.082       .  S
C1403      C1404   1.375       .  A
C1403      H1415   1.082       .  S
C1404      H1416   1.082       .  S
C1405      C1524   1.491       .  S
C1406      C1513   1.488       .  S
C1407      C1555   1.474       .  S
C1408      C1541   1.494       .  S
N1419      C1424   1.352       .  A
N1419      C1423   1.353       .  A
N1419      H1451   1.039       .  S
N1420      C1427   1.348       .  A
N1420      C1428   1.349       .  A
N1421      C1426   1.351       .  A
N1421      C1425   1.351       .  A
N1421      H1452   1.040       .  S
N1422      C1429   1.351       .  A
N1422      C1430   1.351       .  A
C1423      C1431   1.387       .  A
C1423      C1439   1.416       .  A
C1424      C1440   1.415       .  A
C1424      C1432   1.386       .  A
C1425      C1433   1.387       .  A
C1425      C1442   1.411       .  A
C1426      C1441   1.410       .  A
C1426      C1434   1.387       .  A
C1427      C1439   1.410       .  A
C1427      C1435   1.387       .  A
C1428      C1442   1.409       .  A
C1428      C1436   1.386       .  A
C1429      C1437   1.386       .  A
C1429      C1440   1.413       .  A
C1430      C1438   1.385       .  A
C1430      C1441   1.410       .  A
C1431      C1432   1.377       .  A
C1431      H1443   1.082       .  S
C1432      H1444   1.082       .  S
C1433      C1434   1.375       .  A
C1433      H1445   1.082       .  S
C1434      H1446   1.082       .  S
C1435      C1436   1.376       .  A
C1435      H1447   1.082       .  S
C1436      H1448   1.083       .  S
C1437      C1438   1.372       .  A
C1437      H1449   1.082       .  S
C1438      H1450   1.082       .  S
C1439      C1485   1.485       .  S
C1440      C1454   1.488       .  S
C1441      C1471   1.482       .  S
C1442      C1499   1.483       .  S
C1453      C1454   1.400       .  A
C1453      C1458   1.399       .  A
C1453      H1460   1.084       .  S
C1454      C1779   1.410       .  A
C1455      C1778   1.410       .  A
C1455      C1456   1.402       .  A
C1455      N1462   1.428       .  S
C1456      C1781   1.401       .  A
C1456      H1461   1.079       .  S
C1457      C1780   1.399       .  A
C1457      C1458   1.409       .  A
C1458      N1459   1.423       .  S
N1459      O1463   1.261       .  A
N1459      O1464   1.261       .  A
N1462      O1466   1.262       .  A
N1462      O1465   1.262       .  A
C1467      C1792   1.405   1_556  A
C1467      C1472   1.402       .  A
C1467      H1474   1.084       .  S
C1468      C1791   1.405       .  A
C1468      C1469   1.416       .  A
C1469      C1470   1.402       .  A
C1469      N1476   1.430       .  S
C1470      C1471   1.398       .  A
C1470      H1475   1.084       .  S
C1471      C1796   1.406       .  A
C1472      C1795   1.406   1_556  A
C1472      N1473   1.430       .  S
N1473      O1477   1.262       .  A
N1473      O1802   1.262       .  A
N1476      O1480   1.262       .  A
N1476      O1803   1.261       .  A
O1478      N1797   1.262       .  A
O1479      N1800   1.261       .  A
C1481      C1806   1.409   1_554  A
C1481      C1486   1.406       .  A
C1481      H1488   1.084       .  S
C1482      C1805   1.409       .  A
C1482      C1483   1.414       .  A
C1483      C1484   1.397       .  A
C1483      N1490   1.423       .  S
C1484      C1485   1.394       .  A
C1484      H1489   1.084       .  S
C1485      C1810   1.408       .  A
C1486      C1809   1.408       .  A
C1486      N1487   1.429       .  S
N1487      O1491   1.262       .  A
N1487      O1816   1.261       .  A
N1490      O1494   1.262       .  A
N1490      O1817   1.262       .  A
O1492      N1811   1.261       .  A
O1493      N1814   1.262       .  A
C1495      C1820   1.406   1_554  A
C1495      C1500   1.399       .  A
C1495      H1502   1.084       .  S
C1496      C1819   1.406       .  A
C1496      C1497   1.415       .  A
C1497      C1498   1.401       .  A
C1497      N1504   1.428       .  S
C1498      C1499   1.400       .  A
C1498      H1503   1.084       .  S
C1499      C1824   1.406       .  A
C1500      C1823   1.406   1_554  A
C1500      N1501   1.429       .  S
N1501      O1829   1.261       .  A
N1501      O1506   1.262       .  A
N1504      O1832   1.262       .  A
N1504      O1507   1.261       .  A
O1505      N1825   1.261       .  A
O1508      N1828   1.262       .  A
C1509      C2158   1.398   1_565  A
C1509      C1514   1.398       .  A
C1509      H1516   1.076       .  S
C1510      C2157   1.398       .  A
C1510      C1511   1.410       .  A
C1511      C1512   1.395       .  A
C1511      N1518   1.424       .  S
C1512      C2161   1.400       .  A
C1512      H1517   1.084       .  S
C1513      C2160   1.400   1_565  A
C1513      C1514   1.412       .  A
C1514      N1515   1.428       .  S
N1515      O1519   1.262       .  A
N1515      O2168   1.261       .  A
N1518      O1522   1.260       .  A
N1518      O2169   1.262       .  A
O1520      N2163   1.261       .  A
O1521      N2166   1.262       .  A
C1523      C1524   1.403   1_545  A
C1523      C1528   1.400       .  A
C1523      H1530   1.084       .  S
C1524      C2173   1.413       .  A
C1525      C2172   1.413       .  A
C1525      C1526   1.393       .  A
C1525      N1532   1.430       .  S
C1526      C1527   1.399       .  A
C1526      H1531   1.076       .  S
C1527      C2176   1.413       .  A
C1528      C2175   1.413   1_545  A
C1528      N1529   1.427       .  S
N1529      O1533   1.261       .  A
N1529      O1534   1.262       .  A
N1532      O1536   1.262       .  A
N1532      O1535   1.261       .  A
C1537      C2186   1.404       .  A
C1537      C1542   1.405       .  A
C1537      H1544   1.084       .  S
C1538      C2185   1.405       .  A
C1538      C1539   1.410   1_565  A
C1539      C1540   1.393       .  A
C1539      N1546   1.422       .  S
C1540      C1541   1.397   1_545  A
C1540      H1545   1.084       .  S
C1541      C2190   1.417       .  A
C1542      C2189   1.414       .  A
C1542      N1543   1.428       .  S
N1543      O1547   1.262       .  A
N1543      O1548   1.262       .  A
N1546      O1550   1.262       .  A
N1546      O1549   1.262       .  A
C1551      C2200   1.406       .  A
C1551      C1556   1.403       .  A
C1551      H1558   1.084       .  S
C1552      C2199   1.406   1_565  A
C1552      C1553   1.411       .  A
C1553      C1554   1.394       .  A
C1553      N1560   1.428       .  S
C1554      C1555   1.396       .  A
C1554      H1559   1.084       .  S
C1555      C2204   1.406   1_565  A
C1556      C2203   1.406       .  A
C1556      N1557   1.430       .  S
N1557      O1561   1.262       .  A
N1557      O2210   1.262       .  A
N1560      O1564   1.262       .  A
N1560      O2211   1.262       .  A
O1562      N2205   1.262       .  A
O1563      N2208   1.262       .  A
C1565      C1566   1.397   1_655  A
C1565      C1570   1.401       .  A
C1565      H1572   1.078       .  S
C1567      C1568   1.402       .  A
C1567      N1574   1.428       .  S
C1568      H1573   1.084       .  S
C1569      C1570   1.412       .  A
C1570      N1571   1.430       .  S
N1571      O1575   1.261       .  A
N1571      O1576   1.262       .  A
N1574      O1578   1.262       .  A
N1574      O1577   1.260       .  A
C1579      C1580   1.401       .  A
C1579      C1584   1.400       .  A
C1579      H1586   1.084       .  S
C1581      C1582   1.400       .  A
C1581      N1588   1.428       .  S
C1582      H1587   1.084       .  S
C1583      C1584   1.411       .  A
C1584      N1585   1.426       .  S
N1585      O1589   1.260       .  A
N1585      O1590   1.262       .  A
N1588      O1592   1.262       .  A
N1588      O1591   1.261       .  A
C1593      C1598   1.403       .  A
C1593      H1600   1.084       .  S
C1594      C1595   1.419   1_455  A
C1595      C1596   1.399       .  A
C1595      N1602   1.427       .  S
C1596      C1597   1.399   1_655  A
C1596      H1601   1.084       .  S
C1598      N1599   1.428       .  S
N1599      O1603   1.262       .  A
N1599      O1604   1.261       .  A
N1602      O1606   1.259       .  A
N1602      O1605   1.262       .  A
C1607      C1608   1.403   1_655  A
C1607      C1612   1.398       .  A
C1607      H1614   1.084       .  S
C1609      C1610   1.400       .  A
C1609      N1616   1.431       .  S
C1610      H1615   1.074       .  S
C1611      C1612   1.416   1_455  A
C1612      N1613   1.428       .  S
N1613      O1617   1.260       .  A
N1613      O1618   1.262       .  A
N1616      O1620   1.262       .  A
N1616      O1619   1.262       .  A
N1621      C1626   1.354       .  A
N1621      C1625   1.354       .  A
N1621      H1653   1.040       .  S
N1622      C1629   1.348       .  A
N1622      C1630   1.349       .  A
N1623      C1628   1.354       .  A
N1623      C1627   1.357       .  A
N1623      H1654   1.040       .  S
N1624      C1631   1.353       .  A
N1624      C1632   1.352       .  A
C1625      C1633   1.386       .  A
C1625      C1641   1.417       .  A
C1626      C1642   1.417       .  A
C1626      C1634   1.388       .  A
C1627      C1635   1.386       .  A
C1627      C1644   1.421       .  A
C1628      C1643   1.421       .  A
C1628      C1636   1.387       .  A
C1629      C1641   1.407       .  A
C1629      C1637   1.386       .  A
C1630      C1644   1.411       .  A
C1630      C1638   1.387       .  A
C1631      C1639   1.384       .  A
C1631      C1642   1.412       .  A
C1632      C1640   1.388       .  A
C1632      C1643   1.418       .  A
C1633      C1634   1.377       .  A
C1633      H1645   1.082       .  S
C1634      H1646   1.082       .  S
C1635      C1636   1.379       .  A
C1635      H1647   1.082       .  S
C1636      H1648   1.082       .  S
C1637      C1638   1.375       .  A
C1637      H1649   1.082       .  S
C1638      H1650   1.082       .  S
C1639      C1640   1.372       .  A
C1639      H1651   1.081       .  S
C1640      H1652   1.081       .  S
O1655      C1666   1.285       .  A
O1656      C1667   1.290       .  A
O1657      C1668   1.291       .  A
O1657     Eu1663   2.459   1_655  S
O1658      C1669   1.291       .  A
O1659      C1669   1.294       .  A
O1659     Eu2017   2.478       .  S
O1660      C2316   1.292       .  A
O1661      C1667   1.298       .  A
O1661     Eu2311   2.492       .  S
O1662      C1666   1.299       .  A
O1662     Eu1663   2.500       .  S
Eu1663     O2309   2.490   1_545  S
Eu1663     O1665   2.356   1_455  S
Eu1663     O2319   2.367   1_445  S
O1665     Eu2016   2.359       .  S
C1666      C1935   1.488       .  S
C1667      C1918   1.493       .  S
C1668      C1876   1.471   1_545  S
C1668      O2308   1.292       .  A
C1669      C1862   1.485       .  S
H1670      O1671   0.962       .  S
O1671     Eu2311   2.365   1_655  S
H1672      O1673   0.958       .  S
O1673     Eu2017   2.361   1_545  S
O1674      C1697   1.291       .  A
O1674     Eu1690   2.461       .  S
O1675      C1698   1.290       .  A
O1675     Eu1691   2.459   1_455  S
O1676      C1699   1.290       .  A
O1676     Eu1692   2.461       .  S
O1677      C1700   1.293       .  A
O1677     Eu1693   2.473       .  S
O1678      C1701   1.292       .  A
O1678     Eu2341   2.469   1_545  S
O1679      C1702   1.289       .  A
O1679     Eu2340   2.454       .  S
O1680      C1703   1.288       .  A
O1680     Eu1694   2.443       .  S
O1681      C1704   1.288       .  A
O1682      C1703   1.294       .  A
O1682     Eu1692   2.471   1_556  S
O1683      C1704   1.292       .  A
O1683     Eu1693   2.456       .  S
O1684      C1699   1.294       .  A
O1684     Eu1690   2.478   1_554  S
O1685      C1702   1.296       .  A
O1685     Eu1691   2.492   1_554  S
O1686      C1701   1.293       .  A
O1687      C1700   1.294       .  A
O1688      C1697   1.292       .  A
O1688     Eu1694   2.467       .  S
O1689      C1698   1.292   1_655  A
O1689     Eu2342   2.468       .  S
Eu1690     O1696   2.353       .  S
Eu1691     O1706   2.350       .  S
Eu1692     O2327   2.461       .  S
Eu1692     O1989   2.358       .  S
Eu1692     O2354   2.362   1_554  S
Eu1692     O1696   2.356   1_554  S
Eu1693     O1983   2.472   1_556  S
Eu1693     O2326   2.467       .  S
Eu1693     O1997   2.359   1_556  S
Eu1693     O2343   2.353       .  S
Eu1693     O1708   2.357       .  S
Eu1694     O2337   2.469       .  S
Eu1694     O2354   2.361       .  S
Eu1694     O1696   2.359       .  S
O1695     Eu2341   2.352   1_545  S
C1697      C1907   1.476       .  S
C1698      C1890   1.473       .  S
C1699      C1781   1.480       .  S
C1700      C1806   1.488       .  S
C1701      C1820   1.481       .  S
C1702      C1792   1.478       .  S
C1703      C1834   1.477       .  S
C1704      C1851   1.481       .  S
H1705      O1706   0.970       .  S
O1706     Eu2340   2.364   1_556  S
O1706     Eu2342   2.362       .  S
H1707      O1708   0.968       .  S
N1709      C1714   1.349   1_565  A
N1709      C1713   1.346   1_565  A
N1709      H1741   1.043       .  S
N1710      C1717   1.351       .  A
N1710      C1718   1.353       .  A
N1711      C1716   1.348       .  A
N1711      C1715   1.351       .  A
N1711      H1742   1.042       .  S
N1712      C1719   1.349       .  A
N1712      C1720   1.346       .  A
C1713      C1721   1.389       .  A
C1713      C1729   1.410   1_545  A
C1714      C1730   1.406   1_545  A
C1714      C1722   1.385       .  A
C1715      C1723   1.387   1_565  A
C1715      C1732   1.410       .  A
C1716      C1731   1.407       .  A
C1716      C1724   1.387   1_565  A
C1717      C1729   1.417       .  A
C1717      C1725   1.387       .  A
C1718      C1732   1.416       .  A
C1718      C1726   1.385       .  A
C1719      C1727   1.387       .  A
C1719      C1730   1.410       .  A
C1720      C1728   1.385       .  A
C1720      C1731   1.404       .  A
C1721      C1722   1.378       .  A
C1721      H1733   1.082       .  S
C1722      H1734   1.082       .  S
C1723      C1724   1.376       .  A
C1723      H1735   1.082       .  S
C1724      H1736   1.083       .  S
C1725      C1726   1.377       .  A
C1725      H1737   1.082       .  S
C1726      H1738   1.082       .  S
C1727      C1728   1.375       .  A
C1727      H1739   1.082       .  S
C1728      H1740   1.082       .  S
C1729      C1848   1.490       .  S
C1730      C1837   1.486   1_565  S
C1731      C1879   1.472       .  S
C1732      C1865   1.492       .  S
N1743      C1748   1.352       .  A
N1743      C1747   1.353       .  A
N1743      H1775   1.039   1_554  S
N1744      C1751   1.348   1_554  A
N1744      C1752   1.348   1_554  A
N1745      C1750   1.350       .  A
N1745      C1749   1.351       .  A
N1745      H1776   1.040   1_554  S
N1746      C1753   1.352       .  A
N1746      C1754   1.351       .  A
C1747      C1755   1.387       .  A
C1747      C1763   1.416       .  A
C1748      C1764   1.414       .  A
C1748      C1756   1.386       .  A
C1749      C1757   1.387       .  A
C1749      C1766   1.411   1_554  A
C1750      C1765   1.409       .  A
C1750      C1758   1.387       .  A
C1751      C1763   1.409   1_556  A
C1751      C1759   1.387       .  A
C1752      C1766   1.409       .  A
C1752      C1760   1.386       .  A
C1753      C1761   1.386       .  A
C1753      C1764   1.413       .  A
C1754      C1762   1.385       .  A
C1754      C1765   1.411       .  A
C1755      C1756   1.378       .  A
C1755      H1767   1.082       .  S
C1756      H1768   1.082       .  S
C1757      C1758   1.375       .  A
C1757      H1769   1.082       .  S
C1758      H1770   1.082       .  S
C1759      C1760   1.375       .  A
C1759      H1771   1.082       .  S
C1760      H1772   1.082       .  S
C1761      C1762   1.372       .  A
C1761      H1773   1.082       .  S
C1762      H1774   1.082       .  S
C1763      C1809   1.485       .  S
C1764      C1778   1.488       .  S
C1765      C1795   1.481       .  S
C1766      C1823   1.483       .  S
C1777      C1778   1.399   1_556  A
C1777      C1782   1.398       .  A
C1777      H1784   1.084       .  S
C1779      C1780   1.401       .  A
C1779      N1786   1.429       .  S
C1780      H1785   1.076       .  S
C1781      C1782   1.410   1_554  A
C1782      N1783   1.423       .  S
N1783      O1787   1.260       .  A
N1783      O1788   1.261       .  A
N1786      O1790   1.262       .  A
N1786      O1789   1.262       .  A
C1791      C1796   1.402       .  A
C1791      H1798   1.084       .  S
C1792      C1793   1.415       .  A
C1793      C1794   1.402       .  A
C1793      N1800   1.430       .  S
C1794      C1795   1.399       .  A
C1794      H1799   1.084       .  S
C1796      N1797   1.430       .  S
N1797      O1801   1.262       .  A
N1800      O1804   1.262       .  A
C1805      C1810   1.406       .  A
C1805      H1812   1.084       .  S
C1806      C1807   1.414       .  A
C1807      C1808   1.397       .  A
C1807      N1814   1.423       .  S
C1808      C1809   1.394   1_556  A
C1808      H1813   1.084       .  S
C1810      N1811   1.429       .  S
N1811      O1815   1.262       .  A
N1814      O1818   1.262       .  A
C1819      C1824   1.399       .  A
C1819      H1826   1.084       .  S
C1820      C1821   1.416       .  A
C1821      C1822   1.401       .  A
C1821      N1828   1.428       .  S
C1822      C1823   1.399       .  A
C1822      H1827   1.084       .  S
C1824      N1825   1.430       .  S
N1825      O1830   1.262       .  A
N1828      O1831   1.261       .  A
C1833      C2482   1.397   1_565  A
C1833      C1838   1.397       .  A
C1833      H1840   1.076       .  S
C1834      C2481   1.398       .  A
C1834      C1835   1.410       .  A
C1835      C1836   1.395       .  A
C1835      N1842   1.423       .  S
C1836      C2485   1.399       .  A
C1836      H1841   1.084       .  S
C1837      C2484   1.400       .  A
C1837      C1838   1.411   1_545  A
C1838      N1839   1.428       .  S
N1839      O1843   1.262       .  A
N1839      O2492   1.261       .  A
N1842      O1846   1.260       .  A
N1842      O2493   1.262       .  A
O1844      N2487   1.261       .  A
O1845      N2490   1.262       .  A
C1847      C1848   1.404   1_545  A
C1847      C1852   1.399       .  A
C1847      H1854   1.084       .  S
C1848      C2497   1.413       .  A
C1849      C2496   1.412       .  A
C1849      C1850   1.393       .  A
C1849      N1856   1.430       .  S
C1850      C1851   1.399       .  A
C1850      H1855   1.076       .  S
C1851      C2500   1.413       .  A
C1852      C2499   1.413   1_545  A
C1852      N1853   1.427       .  S
N1853      O1857   1.261       .  A
N1853      O1858   1.262       .  A
N1856      O1860   1.262       .  A
N1856      O1859   1.261       .  A
C1861      C2510   1.405       .  A
C1861      C1866   1.406       .  A
C1861      H1868   1.084       .  S
C1862      C2509   1.405       .  A
C1862      C1863   1.410   1_565  A
C1863      C1864   1.394       .  A
C1863      N1870   1.422       .  S
C1864      C1865   1.397   1_545  A
C1864      H1869   1.085       .  S
C1865      C2514   1.416       .  A
C1866      C2513   1.416       .  A
C1866      N1867   1.429       .  S
N1867      O1871   1.262       .  A
N1867      O1872   1.262       .  A
N1870      O1874   1.262       .  A
N1870      O1873   1.262       .  A
C1875      C2524   1.406       .  A
C1875      C1880   1.403       .  A
C1875      H1882   1.084       .  S
C1876      C2523   1.406   1_565  A
C1876      C1877   1.411       .  A
C1877      C1878   1.393       .  A
C1877      N1884   1.427       .  S
C1878      C1879   1.395       .  A
C1878      H1883   1.084       .  S
C1879      C2528   1.406   1_565  A
C1880      C2527   1.406       .  A
C1880      N1881   1.430       .  S
N1881      O1885   1.262       .  A
N1881      O2534   1.262       .  A
N1884      O1888   1.262       .  A
N1884      O2535   1.262       .  A
O1886      N2529   1.262       .  A
O1887      N2532   1.262       .  A
C1889      C1890   1.397   1_655  A
C1889      C1894   1.400       .  A
C1889      H1896   1.079       .  S
C1891      C1892   1.402       .  A
C1891      N1898   1.427       .  S
C1892      H1897   1.084       .  S
C1893      C1894   1.412   1_455  A
C1894      N1895   1.429       .  S
N1895      O1899   1.261       .  A
N1895      O1900   1.262       .  A
N1898      O1902   1.262       .  A
N1898      O1901   1.261       .  A
C1903      C1904   1.401       .  A
C1903      C1908   1.400       .  A
C1903      H1910   1.084       .  S
C1905      C1906   1.399       .  A
C1905      N1912   1.429       .  S
C1906      H1911   1.084       .  S
C1907      C1908   1.410       .  A
C1908      N1909   1.425       .  S
N1909      O1913   1.260       .  A
N1909      O1914   1.262       .  A
N1912      O1916   1.262       .  A
N1912      O1915   1.262       .  A
C1917      C1922   1.405       .  A
C1917      H1924   1.084       .  S
C1918      C1919   1.417   1_455  A
C1919      C1920   1.399       .  A
C1919      N1926   1.425       .  S
C1920      C1921   1.398   1_655  A
C1920      H1925   1.084       .  S
C1922      N1923   1.429       .  S
N1923      O1927   1.262       .  A
N1923      O1928   1.262       .  A
N1926      O1930   1.259       .  A
N1926      O1929   1.262       .  A
C1931      C1932   1.403       .  A
C1931      C1936   1.399   1_455  A
C1931      H1938   1.084   1_455  S
C1933      C1934   1.401       .  A
C1933      N1940   1.431       .  S
C1934      H1939   1.074       .  S
C1935      C1936   1.416   1_455  A
C1936      N1937   1.428       .  S
N1937      O1941   1.260       .  A
N1937      O1942   1.262       .  A
N1940      O1944   1.262       .  A
N1940      O1943   1.262       .  A
N1945      C1950   1.354       .  A
N1945      C1949   1.355       .  A
N1945      H1977   1.040       .  S
N1946      C1953   1.348       .  A
N1946      C1954   1.349       .  A
N1947      C1952   1.354       .  A
N1947      C1951   1.355       .  A
N1947      H1978   1.040       .  S
N1948      C1955   1.352       .  A
N1948      C1956   1.352       .  A
C1949      C1957   1.386       .  A
C1949      C1965   1.417       .  A
C1950      C1966   1.419       .  A
C1950      C1958   1.388       .  A
C1951      C1959   1.386       .  A
C1951      C1968   1.419       .  A
C1952      C1967   1.420       .  A
C1952      C1960   1.387       .  A
C1953      C1965   1.408       .  A
C1953      C1961   1.385       .  A
C1954      C1968   1.411       .  A
C1954      C1962   1.387       .  A
C1955      C1963   1.385       .  A
C1955      C1966   1.413       .  A
C1956      C1964   1.387       .  A
C1956      C1967   1.417       .  A
C1957      C1958   1.376       .  A
C1957      H1969   1.082       .  S
C1958      H1970   1.081       .  S
C1959      C1960   1.379       .  A
C1959      H1971   1.082       .  S
C1960      H1972   1.082       .  S
C1961      C1962   1.374       .  A
C1961      H1973   1.082       .  S
C1962      H1974   1.082       .  S
C1963      C1964   1.371       .  A
C1963      H1975   1.081       .  S
C1964      H1976   1.081       .  S
O1979      C1990   1.286       .  A
O1979     Eu2339   2.432   1_454  S
O1980      C1991   1.290   1_655  A
O1980     Eu2338   2.455   1_554  S
O1981      C1992   1.291       .  A
O1981     Eu1987   2.461   1_655  S
O1982      C1993   1.291       .  A
O1983      C1993   1.293       .  A
O1984     Eu2340   2.467   1_565  S
O1985      C1991   1.297       .  A
O1986      C1990   1.300       .  A
O1986     Eu1987   2.502       .  S
Eu1987     O1989   2.356   1_455  S
O1988     Eu2341   2.347   1_554  S
O1989     Eu2339   2.355   1_554  S
C1990      C2259   1.490       .  S
C1991      C2242   1.490       .  S
C1992      C2200   1.471       .  S
C1993      C2186   1.481       .  S
H1994      O1995   0.970       .  S
O1995     Eu2340   2.359   1_565  S
O1995     Eu2338   2.354   1_554  S
H1996      O1997   0.968       .  S
O1998      C2021   1.291       .  A
O1998     Eu2014   2.464       .  S
O1999      C2022   1.289       .  A
O1999     Eu2015   2.458   1_455  S
O2000      C2023   1.290       .  A
O2000     Eu2016   2.463   1_565  S
O2001      C2024   1.293       .  A
O2001     Eu2017   2.470       .  S
O2002      C2025   1.292       .  A
O2003      C2026   1.289       .  A
O2004      C2027   1.288       .  A
O2004     Eu2018   2.444       .  S
O2005      C2028   1.288   1_545  A
O2006      C2027   1.294       .  A
O2006     Eu2016   2.470       .  S
O2007      C2028   1.293       .  A
O2007     Eu2017   2.457       .  S
O2008      C2023   1.294       .  A
O2008     Eu2014   2.478       .  S
O2009      C2026   1.295       .  A
O2009     Eu2015   2.488       .  S
O2010      C2025   1.292       .  A
O2011      C2024   1.294       .  A
O2012      C2021   1.293       .  A
O2012     Eu2018   2.470   1_565  S
O2013      C2022   1.293   1_655  A
Eu2014     O2304   2.448       .  S
Eu2014     O2319   2.356       .  S
Eu2014     O2020   2.352       .  S
Eu2015     O2303   2.435   1_655  S
Eu2015     O2313   2.353       .  S
Eu2015     O2030   2.351       .  S
Eu2016     O2308   2.466       .  S
Eu2016     O2319   2.360   1_545  S
Eu2016     O2020   2.356   1_545  S
Eu2017     O2312   2.346       .  S
Eu2017     O2032   2.360       .  S
Eu2018     O2020   2.359   1_545  S
C2021      C2231   1.478       .  S
C2022      C2214   1.475       .  S
C2023      C2105   1.481       .  S
C2024      C2130   1.487       .  S
C2025      C2144   1.478       .  S
C2026      C2116   1.477       .  S
C2027      C2158   1.478       .  S
C2028      C2175   1.482       .  S
H2029      O2030   0.962       .  S
H2031      O2032   0.962       .  S
N2033      C2038   1.350       .  A
N2033      C2037   1.347       .  A
N2033      H2065   1.043       .  S
N2034      C2041   1.351       .  A
N2034      C2042   1.352       .  A
N2035      C2040   1.348       .  A
N2035      C2039   1.350       .  A
N2035      H2066   1.041       .  S
N2036      C2043   1.349       .  A
N2036      C2044   1.347       .  A
C2037      C2045   1.389       .  A
C2037      C2053   1.410       .  A
C2038      C2054   1.406       .  A
C2038      C2046   1.385       .  A
C2039      C2047   1.387       .  A
C2039      C2056   1.409       .  A
C2040      C2055   1.407       .  A
C2040      C2048   1.387       .  A
C2041      C2053   1.416       .  A
C2041      C2049   1.387       .  A
C2042      C2056   1.415       .  A
C2042      C2050   1.385       .  A
C2043      C2051   1.387       .  A
C2043      C2054   1.411       .  A
C2044      C2052   1.385       .  A
C2044      C2055   1.405       .  A
C2045      C2046   1.377       .  A
C2045      H2057   1.082       .  S
C2046      H2058   1.082       .  S
C2047      C2048   1.376       .  A
C2047      H2059   1.082       .  S
C2048      H2060   1.083       .  S
C2049      C2050   1.376       .  A
C2049      H2061   1.082       .  S
C2050      H2062   1.082       .  S
C2051      C2052   1.374       .  A
C2051      H2063   1.082       .  S
C2052      H2064   1.082       .  S
C2053      C2172   1.489       .  S
C2054      C2161   1.488       .  S
C2055      C2203   1.473       .  S
C2056      C2189   1.488       .  S
N2067      C2072   1.352       .  A
N2067      C2071   1.353       .  A
N2067      H2099   1.039       .  S
N2068      C2075   1.347       .  A
N2068      C2076   1.348       .  A
N2069      C2074   1.350       .  A
N2069      C2073   1.351       .  A
N2069      H2100   1.040       .  S
N2070      C2077   1.352       .  A
N2070      C2078   1.351       .  A
C2071      C2079   1.387       .  A
C2071      C2087   1.415       .  A
C2072      C2088   1.415       .  A
C2072      C2080   1.386       .  A
C2073      C2081   1.387       .  A
C2073      C2090   1.410       .  A
C2074      C2089   1.409       .  A
C2074      C2082   1.387       .  A
C2075      C2087   1.408       .  A
C2075      C2083   1.387       .  A
C2076      C2090   1.408       .  A
C2076      C2084   1.386       .  A
C2077      C2085   1.386       .  A
C2077      C2088   1.414       .  A
C2078      C2086   1.385       .  A
C2078      C2089   1.411       .  A
C2079      C2080   1.377       .  A
C2079      H2091   1.082       .  S
C2080      H2092   1.082       .  S
C2081      C2082   1.375       .  A
C2081      H2093   1.082       .  S
C2082      H2094   1.082       .  S
C2083      C2084   1.375       .  A
C2083      H2095   1.082       .  S
C2084      H2096   1.083       .  S
C2085      C2086   1.373       .  A
C2085      H2097   1.082       .  S
C2086      H2098   1.082       .  S
C2087      C2133   1.484       .  S
C2088      C2102   1.488       .  S
C2089      C2119   1.481       .  S
C2090      C2147   1.481       .  S
C2101      C2102   1.400       .  A
C2101      C2106   1.400       .  A
C2101      H2108   1.084       .  S
C2102      C2427   1.409       .  A
C2103      C2426   1.410       .  A
C2103      C2104   1.400       .  A
C2103      N2110   1.429       .  S
C2104      C2429   1.398       .  A
C2104      H2109   1.074       .  S
C2105      C2428   1.399       .  A
C2105      C2106   1.409       .  A
C2106      N2107   1.423       .  S
N2107      O2111   1.260       .  A
N2107      O2112   1.261       .  A
N2110      O2114   1.262       .  A
N2110      O2113   1.262       .  A
C2115      C2440   1.405   1_556  A
C2115      C2120   1.401       .  A
C2115      H2122   1.084       .  S
C2116      C2439   1.404       .  A
C2116      C2117   1.415       .  A
C2117      C2118   1.402       .  A
C2117      N2124   1.430       .  S
C2118      C2119   1.399       .  A
C2118      H2123   1.084       .  S
C2119      C2444   1.406       .  A
C2120      C2443   1.406   1_556  A
C2120      N2121   1.430       .  S
N2121      O2125   1.262       .  A
N2121      O2450   1.262       .  A
N2124      O2128   1.262       .  A
N2124      O2451   1.261       .  A
O2126      N2445   1.262       .  A
O2127      N2448   1.261       .  A
C2129      C2454   1.408   1_554  A
C2129      C2134   1.406       .  A
C2129      H2136   1.084       .  S
C2130      C2453   1.408       .  A
C2130      C2131   1.413       .  A
C2131      C2132   1.396       .  A
C2131      N2138   1.423       .  S
C2132      C2133   1.394       .  A
C2132      H2137   1.084       .  S
C2133      C2458   1.408       .  A
C2134      C2457   1.408   1_554  A
C2134      N2135   1.429       .  S
N2135      O2139   1.262       .  A
N2135      O2464   1.261       .  A
N2138      O2142   1.262       .  A
N2138      O2465   1.261       .  A
O2140      N2459   1.261       .  A
O2141      N2462   1.261       .  A
C2143      C2468   1.406   1_554  A
C2143      C2148   1.399       .  A
C2143      H2150   1.084       .  S
C2144      C2467   1.406       .  A
C2144      C2145   1.415       .  A
C2145      C2146   1.400       .  A
C2145      N2152   1.428       .  S
C2146      C2147   1.399       .  A
C2146      H2151   1.084       .  S
C2147      C2472   1.406       .  A
C2148      C2471   1.407   1_554  A
C2148      N2149   1.430       .  S
N2149      O2477   1.261       .  A
N2149      O2154   1.262       .  A
N2152      O2480   1.262       .  A
N2152      O2155   1.261       .  A
O2153      N2473   1.261       .  A
O2156      N2476   1.262       .  A
C2157      C2162   1.398       .  A
C2157      H2164   1.075       .  S
C2158      C2159   1.410       .  A
C2159      C2160   1.396       .  A
C2159      N2166   1.424       .  S
C2160      H2165   1.084       .  S
C2161      C2162   1.412       .  A
C2162      N2163   1.428       .  S
N2163      O2167   1.262       .  A
N2166      O2170   1.260       .  A
C2171      C2172   1.403       .  A
C2171      C2176   1.399       .  A
C2171      H2178   1.084       .  S
C2173      C2174   1.393       .  A
C2173      N2180   1.430       .  S
C2174      C2175   1.399       .  A
C2174      H2179   1.076       .  S
C2176      N2177   1.427       .  S
N2177      O2181   1.261       .  A
N2177      O2182   1.262       .  A
N2180      O2184   1.262       .  A
N2180      O2183   1.261       .  A
C2185      C2190   1.406       .  A
C2185      H2192   1.084       .  S
C2186      C2187   1.410       .  A
C2187      C2188   1.394       .  A
C2187      N2194   1.422       .  S
C2188      C2189   1.396       .  A
C2188      H2193   1.085       .  S
C2190      N2191   1.429       .  S
N2191      O2195   1.262       .  A
N2191      O2196   1.262       .  A
N2194      O2198   1.262       .  A
N2194      O2197   1.262       .  A
C2199      C2204   1.403       .  A
C2199      H2206   1.084       .  S
C2200      C2201   1.411       .  A
C2201      C2202   1.393       .  A
C2201      N2208   1.427       .  S
C2202      C2203   1.395       .  A
C2202      H2207   1.084       .  S
C2204      N2205   1.430       .  S
N2205      O2209   1.262       .  A
N2208      O2212   1.262       .  A
C2213      C2214   1.398   1_655  A
C2213      C2218   1.402       .  A
C2213      H2220   1.078       .  S
C2215      C2216   1.401       .  A
C2215      N2222   1.427       .  S
C2216      H2221   1.084       .  S
C2217      C2218   1.413   1_455  A
C2218      N2219   1.430       .  S
N2219      O2223   1.261       .  A
N2219      O2224   1.262       .  A
N2222      O2226   1.262       .  A
N2222      O2225   1.260       .  A
C2227      C2228   1.401       .  A
C2227      C2232   1.401       .  A
C2227      H2234   1.084       .  S
C2229      C2230   1.400       .  A
C2229      N2236   1.429       .  S
C2230      H2235   1.084       .  S
C2231      C2232   1.411       .  A
C2232      N2233   1.426       .  S
N2233      O2237   1.261       .  A
N2233      O2238   1.262       .  A
N2236      O2240   1.262       .  A
N2236      O2239   1.262       .  A
C2241      C2246   1.404       .  A
C2241      H2248   1.084       .  S
C2242      C2243   1.415   1_455  A
C2243      C2244   1.397       .  A
C2243      N2250   1.424       .  S
C2244      C2245   1.397   1_655  A
C2244      H2249   1.084       .  S
C2246      N2247   1.429       .  S
N2247      O2251   1.262       .  A
N2247      O2252   1.262       .  A
N2250      O2254   1.260       .  A
N2250      O2253   1.262       .  A
C2255      C2256   1.404   1_655  A
C2255      C2260   1.401       .  A
C2255      H2262   1.084       .  S
C2257      C2258   1.400       .  A
C2257      N2264   1.431       .  S
C2258      H2263   1.073       .  S
C2259      C2260   1.417   1_455  A
C2260      N2261   1.428       .  S
N2261      O2265   1.260       .  A
N2261      O2266   1.262       .  A
N2264      O2268   1.262       .  A
N2264      O2267   1.262       .  A
N2269      C2274   1.355       .  A
N2269      C2273   1.356       .  A
N2269      H2301   1.040       .  S
N2270      C2277   1.348       .  A
N2270      C2278   1.350       .  A
N2271      C2276   1.354       .  A
N2271      C2275   1.355       .  A
N2271      H2302   1.040       .  S
N2272      C2279   1.353       .  A
N2272      C2280   1.353       .  A
C2273      C2281   1.386       .  A
C2273      C2289   1.419       .  A
C2274      C2290   1.420       .  A
C2274      C2282   1.388       .  A
C2275      C2283   1.386       .  A
C2275      C2292   1.418       .  A
C2276      C2291   1.420       .  A
C2276      C2284   1.388       .  A
C2277      C2289   1.408       .  A
C2277      C2285   1.386       .  A
C2278      C2292   1.411       .  A
C2278      C2286   1.387       .  A
C2279      C2287   1.385       .  A
C2279      C2290   1.414       .  A
C2280      C2288   1.387       .  A
C2280      C2291   1.419       .  A
C2281      C2282   1.376       .  A
C2281      H2293   1.082       .  S
C2282      H2294   1.081       .  S
C2283      C2284   1.378       .  A
C2283      H2295   1.082       .  S
C2284      H2296   1.082       .  S
C2285      C2286   1.374       .  A
C2285      H2297   1.082       .  S
C2286      H2298   1.082       .  S
C2287      C2288   1.371       .  A
C2287      H2299   1.081       .  S
C2288      H2300   1.081       .  S
O2303      C2314   1.286       .  A
O2304      C2315   1.289   1_655  A
O2305      C2316   1.291       .  A
O2305     Eu2311   2.460   1_655  S
O2306      C2317   1.291       .  A
O2307      C2317   1.294       .  A
O2309      C2315   1.297       .  A
O2310      C2314   1.299       .  A
O2310     Eu2311   2.499       .  S
Eu2311     O2313   2.354   1_455  S
C2314      C2583   1.490       .  S
C2315      C2566   1.490       .  S
C2316      C2524   1.470       .  S
C2317      C2510   1.483       .  S
H2318      O2319   0.963       .  S
H2320      O2321   0.955       .  S
O2322      C2345   1.291       .  A
O2322     Eu2338   2.462       .  S
O2323      C2346   1.289   1_455  A
O2323     Eu2339   2.454   1_455  S
O2324      C2347   1.290       .  A
O2324     Eu2340   2.458   1_565  S
O2325      C2348   1.293       .  A
O2325     Eu2341   2.475       .  S
O2326      C2349   1.292       .  A
O2327      C2350   1.290       .  A
O2328      C2351   1.288       .  A
O2328     Eu2342   2.443       .  S
O2329      C2352   1.287       .  A
O2330      C2351   1.294       .  A
O2330     Eu2340   2.468   1_556  S
O2331      C2352   1.292   1_565  A
O2331     Eu2341   2.452       .  S
O2332      C2347   1.294       .  A
O2332     Eu2338   2.474   1_554  S
O2333      C2350   1.295       .  A
O2333     Eu2339   2.484   1_554  S
O2334      C2349   1.292       .  A
O2335      C2348   1.294       .  A
O2336      C2345   1.293       .  A
O2336     Eu2342   2.472   1_565  S
O2337      C2346   1.292       .  A
Eu2338     O2344   2.354       .  S
Eu2339     O2354   2.350       .  S
Eu2340     O2344   2.355   1_544  S
Eu2341     O2356   2.358       .  S
Eu2342     O2344   2.357   1_545  S
C2345      C2555   1.479       .  S
C2346      C2538   1.472       .  S
C2347      C2429   1.478       .  S
C2348      C2454   1.486       .  S
C2349      C2468   1.479       .  S
C2350      C2440   1.478       .  S
C2351      C2482   1.477       .  S
C2352      C2499   1.481   1_545  S
H2353      O2354   0.968       .  S
H2355      O2356   0.969       .  S
N2357      C2362   1.350       .  A
N2357      C2361   1.347       .  A
N2357      H2389   1.043       .  S
N2358      C2365   1.351       .  A
N2358      C2366   1.353       .  A
N2359      C2364   1.348       .  A
N2359      C2363   1.351       .  A
N2359      H2390   1.042       .  S
N2360      C2367   1.350       .  A
N2360      C2368   1.347       .  A
C2361      C2369   1.389       .  A
C2361      C2377   1.410       .  A
C2362      C2378   1.406       .  A
C2362      C2370   1.385       .  A
C2363      C2371   1.387       .  A
C2363      C2380   1.410       .  A
C2364      C2379   1.407       .  A
C2364      C2372   1.387       .  A
C2365      C2377   1.416       .  A
C2365      C2373   1.386       .  A
C2366      C2380   1.417       .  A
C2366      C2374   1.386       .  A
C2367      C2375   1.387       .  A
C2367      C2378   1.411       .  A
C2368      C2376   1.385       .  A
C2368      C2379   1.406       .  A
C2369      C2370   1.377       .  A
C2369      H2381   1.082       .  S
C2370      H2382   1.082       .  S
C2371      C2372   1.376       .  A
C2371      H2383   1.082       .  S
C2372      H2384   1.083       .  S
C2373      C2374   1.376       .  A
C2373      H2385   1.082       .  S
C2374      H2386   1.082       .  S
C2375      C2376   1.374       .  A
C2375      H2387   1.082       .  S
C2376      H2388   1.082       .  S
C2377      C2496   1.489       .  S
C2378      C2485   1.487       .  S
C2379      C2527   1.474       .  S
C2380      C2513   1.493       .  S
N2391      C2396   1.352       .  A
N2391      C2395   1.353       .  A
N2391      H2423   1.039   1_554  S
N2392      C2399   1.348       .  A
N2392      C2400   1.348       .  A
N2393      C2398   1.351   1_556  A
N2393      C2397   1.351   1_556  A
N2393      H2424   1.040       .  S
N2394      C2401   1.351       .  A
N2394      C2402   1.351       .  A
C2395      C2403   1.387       .  A
C2395      C2411   1.414   1_554  A
C2396      C2412   1.415       .  A
C2396      C2404   1.387       .  A
C2397      C2405   1.387       .  A
C2397      C2414   1.411   1_554  A
C2398      C2413   1.410       .  A
C2398      C2406   1.387       .  A
C2399      C2411   1.408       .  A
C2399      C2407   1.386       .  A
C2400      C2414   1.408       .  A
C2400      C2408   1.386       .  A
C2401      C2409   1.387   1_554  A
C2401      C2412   1.413       .  A
C2402      C2410   1.385   1_554  A
C2402      C2413   1.410       .  A
C2403      C2404   1.377       .  A
C2403      H2415   1.082       .  S
C2404      H2416   1.082       .  S
C2405      C2406   1.374       .  A
C2405      H2417   1.082       .  S
C2406      H2418   1.082       .  S
C2407      C2408   1.375       .  A
C2407      H2419   1.082       .  S
C2408      H2420   1.082       .  S
C2409      C2410   1.372       .  A
C2409      H2421   1.082       .  S
C2410      H2422   1.082       .  S
C2411      C2457   1.484       .  S
C2412      C2426   1.487       .  S
C2413      C2443   1.481       .  S
C2414      C2471   1.482       .  S
C2425      C2426   1.400   1_556  A
C2425      C2430   1.399       .  A
C2425      H2432   1.084       .  S
C2427      C2428   1.402       .  A
C2427      N2434   1.429       .  S
C2428      H2433   1.076       .  S
C2429      C2430   1.409   1_554  A
C2430      N2431   1.423       .  S
N2431      O2435   1.261       .  A
N2431      O2436   1.261       .  A
N2434      O2438   1.262       .  A
N2434      O2437   1.262       .  A
C2439      C2444   1.401       .  A
C2439      H2446   1.084       .  S
C2440      C2441   1.415       .  A
C2441      C2442   1.401       .  A
C2441      N2448   1.430       .  S
C2442      C2443   1.399       .  A
C2442      H2447   1.084       .  S
C2444      N2445   1.430       .  S
N2445      O2449   1.261       .  A
N2448      O2452   1.262       .  A
C2453      C2458   1.406       .  A
C2453      H2460   1.084       .  S
C2454      C2455   1.414       .  A
C2455      C2456   1.397       .  A
C2455      N2462   1.423       .  S
C2456      C2457   1.394       .  A
C2456      H2461   1.084       .  S
C2458      N2459   1.429       .  S
N2459      O2463   1.262       .  A
N2462      O2466   1.262       .  A
C2467      C2472   1.398       .  A
C2467      H2474   1.084       .  S
C2468      C2469   1.414       .  A
C2469      C2470   1.399       .  A
C2469      N2476   1.428       .  S
C2470      C2471   1.399       .  A
C2470      H2475   1.084       .  S
C2472      N2473   1.430       .  S
N2473      O2478   1.262       .  A
N2476      O2479   1.261       .  A
C2481      C2486   1.398       .  A
C2481      H2488   1.075       .  S
C2482      C2483   1.410       .  A
C2483      C2484   1.396       .  A
C2483      N2490   1.424       .  S
C2484      H2489   1.084       .  S
C2485      C2486   1.412       .  A
C2486      N2487   1.428       .  S
N2487      O2491   1.262       .  A
N2490      O2494   1.260       .  A
C2495      C2496   1.403       .  A
C2495      C2500   1.400       .  A
C2495      H2502   1.084       .  S
C2497      C2498   1.391       .  A
C2497      N2504   1.430       .  S
C2498      C2499   1.399       .  A
C2498      H2503   1.077       .  S
C2500      N2501   1.427       .  S
N2501      O2505   1.261       .  A
N2501      O2506   1.262       .  A
N2504      O2508   1.262       .  A
N2504      O2507   1.261       .  A
C2509      C2514   1.406       .  A
C2509      H2516   1.084       .  S
C2510      C2511   1.410       .  A
C2511      C2512   1.393       .  A
C2511      N2518   1.422       .  S
C2512      C2513   1.397       .  A
C2512      H2517   1.085       .  S
C2514      N2515   1.429       .  S
N2515      O2519   1.262       .  A
N2515      O2520   1.262       .  A
N2518      O2522   1.262       .  A
N2518      O2521   1.262       .  A
C2523      C2528   1.403       .  A
C2523      H2530   1.084       .  S
C2524      C2525   1.411       .  A
C2525      C2526   1.393       .  A
C2525      N2532   1.428       .  S
C2526      C2527   1.395       .  A
C2526      H2531   1.084       .  S
C2528      N2529   1.430       .  S
N2529      O2533   1.262       .  A
N2532      O2536   1.262       .  A
C2537      C2538   1.397       .  A
C2537      C2542   1.401       .  A
C2537      H2544   1.077       .  S
C2539      C2540   1.400       .  A
C2539      N2546   1.427       .  S
C2540      H2545   1.084       .  S
C2541      C2542   1.413       .  A
C2542      N2543   1.430       .  S
N2543      O2547   1.261       .  A
N2543      O2548   1.262       .  A
N2546      O2550   1.262       .  A
N2546      O2549   1.260       .  A
C2551      C2552   1.402       .  A
C2551      C2556   1.401       .  A
C2551      H2558   1.084       .  S
C2553      C2554   1.400       .  A
C2553      N2560   1.429       .  S
C2554      H2559   1.084       .  S
C2555      C2556   1.411       .  A
C2556      N2557   1.426       .  S
N2557      O2561   1.261       .  A
N2557      O2562   1.262       .  A
N2560      O2564   1.262       .  A
N2560      O2563   1.262       .  A
C2565      C2570   1.404       .  A
C2565      H2572   1.084       .  S
C2566      C2567   1.416   1_455  A
C2567      C2568   1.397       .  A
C2567      N2574   1.425       .  S
C2568      C2569   1.398   1_655  A
C2568      H2573   1.084       .  S
C2570      N2571   1.429       .  S
N2571      O2575   1.262       .  A
N2571      O2576   1.262       .  A
N2574      O2578   1.259       .  A
N2574      O2577   1.262       .  A
C2579      C2580   1.403       .  A
C2579      C2584   1.400   1_455  A
C2579      H2586   1.084   1_455  S
C2581      C2582   1.401       .  A
C2581      N2588   1.431       .  S
C2582      H2587   1.074       .  S
C2583      C2584   1.416   1_455  A
C2584      N2585   1.428       .  S
N2585      O2589   1.260       .  A
N2585      O2590   1.262       .  A
N2588      O2592   1.262       .  A
N2588      O2591   1.262       .  A
