geometry optimzed in LAMMPS
_audit_creation_date              2020-11-30 
_audit_creation_method            'lammps2cif' 
_symmetry_space_group_name_H-M    'P1' 
_symmetry_Int_Tables_number       1 
_symmetry_cell_setting            triclinic 
loop_ 
_symmetry_equiv_pos_as_xyz 
  x,y,z 
_cell_length_a                    25.80087051 
_cell_length_b                    25.787861770780697 
_cell_length_c                    25.780318648273397 
_cell_angle_alpha                 89.89517414824356 
_cell_angle_beta                  90.07934469818042 
_cell_angle_gamma                 89.9813184048827 
loop_ 
_atom_site_label 
_atom_site_type_symbol 
_atom_site_fract_x 
_atom_site_fract_y 
_atom_site_fract_z 
_atom_site_charge 
N1          N  0.00544362  0.49750297  0.41997402    -0.36600
N2          N  0.00324512  0.57955795  0.49712547    -0.57200
N3          N  0.01300490  0.50265807  0.57815019    -0.36600
N4          N  0.01022071  0.42079892  0.50091090    -0.57200
C5          C  0.98707166  0.53782526  0.39193326     0.27000
C6          C  0.99337190  0.45375582  0.39385566     0.27000
C7          C  0.99912851  0.54552191  0.60501188     0.27000
C8          C  0.99879035  0.46093841  0.60674770     0.27000
C9          C  0.01117898  0.60728356  0.45332168     0.35600
C10         C  0.01793849  0.61011866  0.53711527     0.35600
C11         C  0.02292275  0.39111286  0.45978843     0.35600
C12         C  0.02342379  0.39348588  0.54357271     0.35600
C13         C  0.96244309  0.51948025  0.34774661    -0.21900
C14         C  0.96655342  0.46628733  0.34889560    -0.21900
C15         C  0.97533254  0.53093774  0.65094728    -0.21900
C16         C  0.97490723  0.47752487  0.65194308    -0.21900
C17         C  0.03156058  0.65550209  0.46543383    -0.22900
C18         C  0.03605766  0.65721647  0.51855659    -0.22900
C19         C  0.04517853  0.34501729  0.47626779    -0.22900
C20         C  0.04545126  0.34649723  0.52954144    -0.22900
C21         C  0.99664109  0.59055310  0.40313578    -0.18300
C22         C  0.00930800  0.40337403  0.40825336    -0.18300
C23         C  0.01061540  0.40870358  0.59450707    -0.18300
C24         C  0.01024585  0.59717466  0.58993523    -0.18300
H25         H  0.94424042  0.54208850  0.31736065     0.14600
H26         H  0.95194270  0.43992921  0.31970898     0.14600
H27         H  0.95988498  0.55613276  0.68067948     0.14600
H28         H  0.95924646  0.45367439  0.68273217     0.14600
H29         H  0.04189722  0.68632709  0.43885870     0.12900
H30         H  0.05037844  0.68969107  0.54088461     0.12900
H31         H  0.05869731  0.31322823  0.45250185     0.12900
H32         H  0.05939274  0.31610141  0.55497802     0.12900
H33         H  0.03047558  0.50001855  0.45160243     0.26200
H34         H  0.03620208  0.50206473  0.54509460     0.26200
O35         O  0.99844267  0.14723882  0.08612745    -0.86500
O36         O  0.99888643  0.85265338  0.08327951    -0.86700
O37         O  0.91288984  0.00384076  0.14844379    -0.88300
O38         O  0.07949492  0.99955853  0.15221597    -0.87100
O39         O  0.14394121  0.99601595  0.09103544    -0.86700
O40         O  0.85061109  0.00147685  0.08471010    -0.88000
O41         O  0.99472231  0.91449563  0.14720907    -0.86500
O42         O  0.99533284  0.08385254  0.14877362    -0.86100
Zr43       Zr  0.99680398  0.99989736  0.10606796     2.84300
O44         O  0.04936120  0.94694811  0.05462372    -1.08100
O45         O  0.94534527  0.05332603  0.05340369    -1.08800
C46         C  0.99689477  0.13159526  0.13370557     1.06600
C47         C  0.99659724  0.86701762  0.13119737     1.06600
C48         C  0.86543213  0.00313299  0.13270699     1.09500
C49         C  0.12758079  0.99708356  0.13847973     1.07300
H50         H  0.92315441  0.92606418  0.07385710     0.32900
O51         O  0.94512664  0.94775025  0.05261282    -1.29000
H52         H  0.07179985  0.07436236  0.07790174     0.32600
O53         O  0.05045207  0.05299709  0.05571994    -1.30700
O54         O  0.00107192  0.85458007  0.91445891    -0.86500
O55         O  0.00302533  0.14987176  0.91834463    -0.88000
O56         O  0.84998750  0.91733434  0.00244686    -0.86600
O57         O  0.14455773  0.91483627  0.00504246    -0.86600
O58         O  0.14662740  0.08385139  0.00566607    -0.86300
O59         O  0.85115793  0.08523072  0.99679712    -0.86100
O60         O  0.91946522  0.00194571  0.85242188    -0.86500
O61         O  0.08770761  0.00793940  0.85707388    -0.86000
O62         O  0.85513557  0.99643133  0.91385367    -0.87000
O63         O  0.14867307  0.00269106  0.92186032    -0.86200
O64         O  0.91246167  0.85402282  0.99722049    -0.86600
O65         O  0.91399283  0.14827527  0.99602897    -0.86300
O66         O  0.08391488  0.14686239  0.99907816    -0.85900
O67         O  0.08110159  0.85259436  0.99861540    -0.86400
O68         O  0.00266554  0.91861731  0.85249109    -0.86700
O69         O  0.00150544  0.08736694  0.85513080    -0.88000
Zr70       Zr  0.99771076  0.89618883  0.99948142     2.83100
Zr71       Zr  0.99888275  0.10550612  0.00175043     2.83500
Zr72       Zr  0.89404640  0.00101392  0.99998093     2.84100
Zr73       Zr  0.10350450  0.99988608  0.00494410     2.83400
Zr74       Zr  0.00198914  0.00235076  0.89699371     2.84200
O75         O  0.05300264  0.05330551  0.95145757    -1.08600
O76         O  0.94707250  0.94972695  0.94693898    -1.08100
C77         C  0.00253681  0.87052557  0.86689874     1.06600
C78         C  0.00275823  0.13503458  0.87051764     1.09200
C79         C  0.86483004  0.86953942  0.00022873     1.06800
C80         C  0.12874449  0.86743115  0.00172578     1.07100
C81         C  0.13154428  0.13146404  0.00159955     1.06700
C82         C  0.86615713  0.13303339  0.99482891     1.06300
C83         C  0.87171584  0.99822801  0.86657880     1.06700
C84         C  0.13499997  0.00656728  0.87372916     1.06200
H85         H  0.92639081  0.07516979  0.92597273     0.32900
O86         O  0.94749331  0.05357873  0.94828388    -1.29700
H87         H  0.07482529  0.92759748  0.92810331     0.32900
O88         O  0.05267404  0.94870895  0.94968227    -1.31000
N89         N  0.49736084  0.99444874  0.42433640    -0.36600
N90         N  0.58056056  0.99532184  0.50030890    -0.57200
N91         N  0.50504726  0.99476039  0.58330974    -0.36600
N92         N  0.42167194  0.00049079  0.50728732    -0.57200
C93         C  0.53818162  0.00774010  0.39409654     0.27000
C94         C  0.45358612  0.00557140  0.39754070     0.27000
C95         C  0.54938067  0.00452788  0.60949359     0.27000
C96         C  0.46525717  0.01116968  0.61321395     0.27000
C97         C  0.60783217  0.98582581  0.45673090     0.35600
C98         C  0.61130605  0.98106050  0.54026261     0.35600
C99         C  0.39064933  0.98626100  0.46740443     0.35600
C100        C  0.39489636  0.99055139  0.55126890     0.35600
C101        C  0.52012799  0.02756874  0.34742817    -0.21900
C102        C  0.46672153  0.02617714  0.34957725    -0.21900
C103        C  0.53782285  0.02753177  0.65665712    -0.21900
C104        C  0.48466881  0.03208610  0.65885660    -0.21900
C105        C  0.65600808  0.96535697  0.46895893    -0.22900
C106        C  0.65807288  0.96196250  0.52200121    -0.22900
C107        C  0.34425129  0.96679689  0.48617007    -0.22900
C108        C  0.34691228  0.96958413  0.53929065    -0.22900
C109        C  0.59101000  0.99871017  0.40632251    -0.18300
C110        C  0.40245988  0.99435303  0.41439355    -0.18300
C111        C  0.41210718  0.00335194  0.60180390    -0.18300
C112        C  0.59956634  0.99036866  0.59279347    -0.18300
H113        H  0.54303985  0.04096723  0.31492659     0.14600
H114        H  0.44058920  0.03860335  0.31912322     0.14600
H115        H  0.56483325  0.03958655  0.68645216     0.14600
H116        H  0.46286106  0.04819021  0.69083065     0.14600
H117        H  0.68654132  0.95427108  0.44244596     0.12900
H118        H  0.69067959  0.94806009  0.54452776     0.12900
H119        H  0.31174586  0.95231424  0.46394969     0.12900
H120        H  0.31694305  0.95747850  0.56602202     0.12900
H121        H  0.49910343  0.97335721  0.45872149     0.26200
H122        H  0.50196826  0.97249271  0.54982336     0.26200
N123        N  0.49788032  0.42271429  0.99189888    -0.36600
N124        N  0.57633668  0.50282956  0.99917552    -0.57200
N125        N  0.49509121  0.58037064  0.01042267    -0.36600
N126        N  0.41677003  0.49993035  0.99665395    -0.57200
C127        C  0.54065070  0.39685198  0.97603622     0.27000
C128        C  0.45617366  0.39493113  0.97640692     0.27000
C129        C  0.53702963  0.61076157  0.00194660     0.27000
C130        C  0.45258615  0.60913150  0.99948699     0.27000
C131        C  0.60596353  0.46016755  0.00675887     0.35600
C132        C  0.60429426  0.54371711  0.01633451     0.35600
C133        C  0.38775500  0.45673671  0.00269623     0.35600
C134        C  0.38628668  0.54018482  0.01033937     0.35600
C135        C  0.52574549  0.35262790  0.94921518    -0.21900
C136        C  0.47242140  0.35114457  0.94998320    -0.21900
C137        C  0.52100399  0.65952061  0.98581652    -0.21900
C138        C  0.46768776  0.65848145  0.98419897    -0.21900
C139        C  0.65265265  0.47406593  0.02956800    -0.22900
C140        C  0.65177236  0.52709523  0.03512880    -0.22900
C141        C  0.33869010  0.46961050  0.02038021    -0.22900
C142        C  0.33770153  0.52257725  0.02502263    -0.22900
C143        C  0.59233269  0.40964547  0.98992619    -0.18300
C144        C  0.40412596  0.40637318  0.98895786    -0.18300
C145        C  0.40060146  0.59278841  0.00584869    -0.18300
C146        C  0.58912629  0.59610339  0.01087204    -0.18300
H147        H  0.55067306  0.32370184  0.93190463     0.14600
H148        H  0.44834643  0.32103210  0.93343238     0.14600
H149        H  0.54515970  0.69249231  0.97632272     0.14600
H150        H  0.44289179  0.69053273  0.97318063     0.14600
H151        H  0.68428400  0.44882598  0.04068654     0.12900
H152        H  0.68256162  0.55078635  0.05098041     0.12900
H153        H  0.30673848  0.44371754  0.02861544     0.12900
H154        H  0.30488030  0.54550677  0.03750972     0.12900
H155        H  0.49722793  0.45360301  0.01780441     0.26200
H156        H  0.49529903  0.54391894  0.02778024     0.26200
C157        C  0.71154733  0.79073047  0.08425996    -0.17800
C158        C  0.67317722  0.75230585  0.08609967    -0.20000
C159        C  0.67053463  0.71395980  0.04756371     0.20700
C160        C  0.70715282  0.71430450  0.00686234    -0.02900
C161        C  0.74602606  0.75293943  0.00513655    -0.06000
C162        C  0.74807262  0.79148021  0.04390842     0.20900
C163        C  0.78290841  0.75287546  0.96467265     0.19100
C164        C  0.78005962  0.71482552  0.92593784    -0.17500
C165        C  0.74142552  0.67679290  0.92747886    -0.19700
C166        C  0.70504024  0.67599045  0.96788006     0.20600
C167        C  0.66664673  0.63752115  0.96995140    -0.32700
C168        C  0.63010862  0.63685697  0.01029133     0.01300
C169        C  0.63206582  0.67527673  0.04892435    -0.24000
C170        C  0.78666226  0.82993089  0.04162732    -0.28600
C171        C  0.82395579  0.82947902  0.00185734     0.07000
C172        C  0.82202640  0.79075743  0.96369395    -0.27300
H173        H  0.71269449  0.81985463  0.11447283     0.11700
H174        H  0.64551696  0.75261494  0.11768359     0.12800
H175        H  0.80782793  0.71440286  0.89445139     0.11900
H176        H  0.74016121  0.64779663  0.89714190     0.11100
H177        H  0.66480607  0.60811544  0.93999156     0.16500
H178        H  0.60373178  0.67481920  0.07993732     0.12400
H179        H  0.78834306  0.85970154  0.07123776     0.15300
H180        H  0.85055451  0.79068588  0.93283999     0.15100
C181        C  0.64943340  0.23057824  0.02972663    -0.17800
C182        C  0.68701950  0.19151131  0.02904139    -0.20000
C183        C  0.73619468  0.20102466  0.00787795     0.20700
C184        C  0.74703636  0.24983532  0.98556137    -0.02900
C185        C  0.70861724  0.28893741  0.98519026    -0.06000
C186        C  0.66007685  0.27954811  0.00847915     0.20900
C187        C  0.71907892  0.33761758  0.96238528     0.19100
C188        C  0.76786161  0.34663193  0.94000479    -0.17500
C189        C  0.80633012  0.30825461  0.94136843    -0.19700
C190        C  0.79649875  0.25989726  0.96451231     0.20600
C191        C  0.83536758  0.22172474  0.96768075    -0.32700
C192        C  0.82507022  0.17320947  0.99069644     0.01300
C193        C  0.77497024  0.16291389  0.00965632    -0.24000
C194        C  0.62320586  0.31939988  0.01071309    -0.28600
C195        C  0.63289987  0.36803056  0.98779231     0.07000
C196        C  0.68077748  0.37647102  0.96286915    -0.27300
H197        H  0.61210072  0.22258013  0.04719492     0.11700
H198        H  0.67795454  0.15413994  0.04602393     0.12800
H199        H  0.77657362  0.38369777  0.92218865     0.11900
H200        H  0.84392723  0.31654222  0.92462183     0.11100
H201        H  0.87354515  0.22968191  0.95206522     0.16500
H202        H  0.76653246  0.12565364  0.02726870     0.12400
H203        H  0.58666512  0.31259504  0.03029531     0.15300
H204        H  0.68837670  0.41352627  0.94447751     0.15100
C205        C  0.24090582  0.66805020  0.93089016    -0.17800
C206        C  0.20256084  0.70640788  0.93040095    -0.20000
C207        C  0.20372049  0.74680236  0.96678878     0.20700
C208        C  0.24362837  0.74837466  0.00432052    -0.02900
C209        C  0.28172860  0.70923844  0.00536761    -0.06000
C210        C  0.28065168  0.66921490  0.96810524     0.20900
C211        C  0.32110190  0.71041314  0.04346257     0.19100
C212        C  0.32197342  0.75052311  0.08012814    -0.17500
C213        C  0.28470657  0.78980815  0.07855566    -0.19700
C214        C  0.24563541  0.78919130  0.04070389     0.20600
C215        C  0.20844882  0.82861137  0.03870255    -0.32700
C216        C  0.16838735  0.82678595  0.00198841     0.01300
C217        C  0.16581092  0.78573477  0.96636583    -0.24000
C218        C  0.31960060  0.63135696  0.96851386    -0.28600
C219        C  0.35901588  0.63258588  0.00617594     0.07000
C220        C  0.35922230  0.67176682  0.04388053    -0.27300
H221        H  0.23949080  0.63747025  0.90215241     0.11700
H222        H  0.17221434  0.70469057  0.90134522     0.12800
H223        H  0.35183268  0.75181849  0.10969009     0.11900
H224        H  0.28643621  0.82069703  0.10695348     0.11100
H225        H  0.20988391  0.86016451  0.06643947     0.16500
H226        H  0.13481948  0.78467696  0.93791015     0.12400
H227        H  0.31958447  0.60099020  0.93947243     0.15300
H228        H  0.38951568  0.67233529  0.07307414     0.15100
C229        C  0.20045063  0.29400088  0.92790560    -0.17800
C230        C  0.23930106  0.33172228  0.92499351    -0.20000
C231        C  0.28343226  0.32830897  0.95671025     0.20700
C232        C  0.28874835  0.28618385  0.99138698    -0.02900
C233        C  0.24986770  0.24777886  0.99385183    -0.06000
C234        C  0.20530105  0.25201586  0.96228083     0.20900
C235        C  0.25551340  0.20529279  0.02803080     0.19100
C236        C  0.29954669  0.20195310  0.05987266    -0.17500
C237        C  0.33769913  0.24043615  0.05800481    -0.19700
C238        C  0.33272268  0.28259508  0.02385811     0.20600
C239        C  0.37063442  0.32150757  0.02199139    -0.32700
C240        C  0.36527799  0.36377060  0.98794827     0.01300
C241        C  0.32201446  0.36658226  0.95487036    -0.24000
C242        C  0.16640063  0.21420746  0.96566875    -0.28600
C243        C  0.17211693  0.17156930  0.99921228     0.07000
C244        C  0.21692665  0.16704989  0.02991172    -0.27300
H245        H  0.16658292  0.29766768  0.90325963     0.11700
H246        H  0.23463328  0.36381404  0.89820435     0.12800
H247        H  0.30434463  0.16970067  0.08645093     0.11900
H248        H  0.37116168  0.23718892  0.08324553     0.11100
H249        H  0.40397899  0.31953190  0.04757367     0.16500
H250        H  0.31806346  0.39918526  0.92854037     0.12400
H251        H  0.13207691  0.21738220  0.94153326     0.15300
H252        H  0.22122861  0.13424075  0.05594369     0.15100
C253        C  0.80629775  0.05468250  0.69627080    -0.17800
C254        C  0.76802420  0.05359092  0.65787971    -0.20000
C255        C  0.72491053  0.02085195  0.66305584     0.20700
C256        C  0.72071210  0.98808076  0.70675536    -0.02900
C257        C  0.75894063  0.98963931  0.74574074    -0.06000
C258        C  0.80178426  0.02330572  0.74053840     0.20900
C259        C  0.75378125  0.95821001  0.79033346     0.19100
C260        C  0.71158324  0.92423193  0.79469903    -0.17500
C261        C  0.67393420  0.92228108  0.75574126    -0.19700
C262        C  0.67775643  0.95456647  0.71206168     0.20600
C263        C  0.63889174  0.95472295  0.67410174    -0.32700
C264        C  0.64215335  0.98843452  0.63143051     0.01300
C265        C  0.68538605  0.02104832  0.62585246    -0.24000
C266        C  0.83894575  0.02546625  0.78005022    -0.28600
C267        C  0.83302123  0.99536259  0.82508347     0.07000
C268        C  0.79062038  0.96172490  0.83001098    -0.27300
H269        H  0.83903953  0.08060416  0.69170353     0.11700
H270        H  0.77187755  0.07872308  0.62437709     0.12800
H271        H  0.70742890  0.89954301  0.82849814     0.11900
H272        H  0.64136253  0.89614723  0.76018866     0.11100
H273        H  0.60559629  0.92937074  0.67801828     0.16500
H274        H  0.68771589  0.04704392  0.59282721     0.12400
H275        H  0.87184722  0.05139601  0.77638769     0.15300
H276        H  0.78671231  0.93789666  0.86450085     0.15100
C277        C  0.34737271  0.95296978  0.77575802    -0.17800
C278        C  0.30887255  0.95400312  0.81389105    -0.20000
C279        C  0.26303374  0.98225081  0.80596303     0.20700
C280        C  0.25608237  0.01018726  0.75935163    -0.02900
C281        C  0.29544240  0.01002050  0.72130583    -0.06000
C282        C  0.34102781  0.98077092  0.72934484     0.20900
C283        C  0.28889000  0.03857034  0.67502405     0.19100
C284        C  0.24288028  0.06653973  0.66693276    -0.17500
C285        C  0.20345420  0.06589613  0.70419863    -0.19700
C286        C  0.20963047  0.03781564  0.75051396     0.20600
C287        C  0.17010225  0.03650144  0.78795564    -0.32700
C288        C  0.17691647  0.00885257  0.83461205     0.01300
C289        C  0.22378837  0.98244331  0.84355249    -0.25100
C290        C  0.37907468  0.97915719  0.69053170    -0.28600
C291        C  0.37289793  0.00751929  0.64426343     0.07000
C292        C  0.32808489  0.03796825  0.63733391    -0.27300
H293        H  0.38213717  0.93036595  0.78256779     0.11700
H294        H  0.31471613  0.93221594  0.84939933     0.12800
H295        H  0.23714088  0.08846833  0.63149285     0.11900
H296        H  0.16809802  0.08736467  0.69677402     0.11100
H297        H  0.13422354  0.05731896  0.78102870     0.16500
H298        H  0.22913370  0.96077617  0.87924858     0.12400
H299        H  0.41323786  0.95524461  0.69591615     0.15300
H300        H  0.32325863  0.06012438  0.60186678     0.15100
C301        C  0.29265440  0.92985370  0.20963908    -0.17800
C302        C  0.33041883  0.92861275  0.24866234    -0.20000
C303        C  0.32526940  0.95952118  0.29311886     0.20700
C304        C  0.28099946  0.99117401  0.29884581    -0.02900
C305        C  0.24249131  0.99191579  0.25971729    -0.06000
C306        C  0.24879241  0.96167183  0.21456077     0.20900
C307        C  0.19806975  0.02335780  0.26549667     0.19100
C308        C  0.19257195  0.05369982  0.31034921    -0.17500
C309        C  0.23104780  0.05349864  0.34876448    -0.19700
C310        C  0.27555563  0.02264101  0.34325346     0.20600
C311        C  0.31505935  0.02329685  0.38088328    -0.32700
C312        C  0.35965878  0.99229862  0.37514801     0.01300
C313        C  0.36397078  0.95990454  0.33150345    -0.24000
C314        C  0.21135458  0.96401149  0.17498277    -0.28600
C315        C  0.16696014  0.99518449  0.18041280     0.07000
C316        C  0.16025895  0.02424781  0.22612174    -0.27300
H317        H  0.29790786  0.90609319  0.17542262     0.11700
H318        H  0.36405501  0.90395493  0.24372878     0.12800
H319        H  0.15873849  0.07805132  0.31547570     0.11900
H320        H  0.22611214  0.07773127  0.38269393     0.11100
H321        H  0.31153286  0.04839789  0.41438601     0.16500
H322        H  0.39798297  0.93560038  0.32715726     0.12400
H323        H  0.21638602  0.94104289  0.14015695     0.15300
H324        H  0.12617168  0.04845599  0.23046420     0.15100
C325        C  0.70868017  0.92655219  0.21015235    -0.17800
C326        C  0.67023833  0.92604085  0.24830751    -0.20000
C327        C  0.67006926  0.96345771  0.28771109     0.20700
C328        C  0.71007326  0.00078242  0.28978832    -0.02900
C329        C  0.74916823  0.00103148  0.25147168    -0.06000
C330        C  0.74777223  0.96432849  0.21090086     0.20900
C331        C  0.78933547  0.03816478  0.25349800     0.19100
C332        C  0.79036816  0.07427627  0.29422257    -0.17500
C333        C  0.75140313  0.07423116  0.33205001    -0.19700
C334        C  0.71083561  0.03796249  0.32991178     0.20600
C335        C  0.67106938  0.03800846  0.36712072    -0.32700
C336        C  0.63075160  0.00129737  0.36464934     0.01300
C337        C  0.63063318  0.96408495  0.32506528    -0.24000
C338        C  0.78531885  0.96613272  0.17165449    -0.28600
C339        C  0.82510384  0.00316811  0.17318204     0.07000
C340        C  0.82749299  0.03856464  0.21461014    -0.27300
H341        H  0.70756115  0.89764130  0.17974106     0.11700
H342        H  0.64023389  0.89670482  0.24663152     0.12800
H343        H  0.82106873  0.10285661  0.29656209     0.11900
H344        H  0.75285279  0.10274976  0.36283504     0.11100
H345        H  0.67155144  0.06614353  0.39832684     0.16500
H346        H  0.60014684  0.93517376  0.32396884     0.12400
H347        H  0.78420876  0.93815137  0.14032059     0.15300
H348        H  0.85854355  0.06687447  0.21599004     0.15100
C349        C  0.05872264  0.30756411  0.80796207    -0.17800
C350        C  0.06034356  0.34545483  0.76908486    -0.20000
C351        C  0.03428729  0.33779848  0.72190923     0.20700
C352        C  0.00654949  0.29136682  0.71364282    -0.02900
C353        C  0.00565416  0.25275131  0.75251488    -0.06000
C354        C  0.03149861  0.26111376  0.80008082     0.20900
C355        C  0.97891636  0.20582537  0.74375644     0.19100
C356        C  0.95292402  0.19812745  0.69653730    -0.17500
C357        C  0.95310229  0.23674788  0.65836018    -0.19700
C358        C  0.97973859  0.28347796  0.66656060     0.20600
C359        C  0.98016121  0.32239466  0.62850011    -0.32700
C360        C  0.00852667  0.36840854  0.63606762     0.01300
C361        C  0.03565446  0.37565673  0.68282058    -0.24000
C362        C  0.02979144  0.22282028  0.83881012    -0.28600
C363        C  0.00369069  0.17573674  0.83007757     0.07000
C364        C  0.97857993  0.16745440  0.78236336    -0.27300
H365        H  0.07894772  0.31451541  0.84414784     0.11700
H366        H  0.08180216  0.38088987  0.77601487     0.12800
H367        H  0.93222277  0.16231057  0.68923321     0.11900
H368        H  0.93255647  0.22998006  0.62231808     0.11100
H369        H  0.95886698  0.31678252  0.59265473     0.16500
H370        H  0.05788219  0.41085088  0.68862088     0.12400
H371        H  0.04956838  0.22922354  0.87538231     0.15300
H372        H  0.95805514  0.13139272  0.77561657     0.15100
C373        C  0.06452755  0.66248557  0.76297233    -0.17800
C374        C  0.06237002  0.70000678  0.80214624    -0.20000
C375        C  0.03414198  0.74601207  0.79478054     0.20700
C376        C  0.00789314  0.75428309  0.74739845    -0.02900
C377        C  0.00929575  0.71596802  0.70822843    -0.06000
C378        C  0.03796201  0.66997194  0.71595840     0.20900
C379        C  0.98170313  0.72357476  0.66152902     0.19100
C380        C  0.95390654  0.76977489  0.65394430    -0.17500
C381        C  0.95335858  0.80813877  0.69227634    -0.19700
C382        C  0.98004296  0.80072780  0.73918963     0.20600
C383        C  0.97913777  0.83881107  0.77808280    -0.32700
C384        C  0.00447270  0.83052161  0.82572967     0.01300
C385        C  0.03167998  0.78386280  0.83388379    -0.24000
C386        C  0.03921629  0.63217056  0.67673380    -0.28600
C387        C  0.01088524  0.63890395  0.63040712     0.07000
C388        C  0.98197658  0.68472902  0.62342106    -0.27300
H389        H  0.08666265  0.62738002  0.76962890     0.11700
H390        H  0.08290580  0.69308393  0.83819698     0.12800
H391        H  0.93263415  0.77630422  0.61825800     0.11900
H392        H  0.93170656  0.84349713  0.68536562     0.11100
H393        H  0.95782323  0.87451493  0.77172070     0.16500
H394        H  0.05166432  0.77743950  0.87036635     0.12400
H395        H  0.06169240  0.59708161  0.68242332     0.15300
H396        H  0.95935805  0.68995993  0.58833461     0.15100
C397        C  0.93367708  0.75906093  0.33632959    -0.17800
C398        C  0.93557648  0.79873606  0.29933086    -0.20000
C399        C  0.96461982  0.79257229  0.25377876     0.20700
C400        C  0.99140164  0.74566143  0.24500372    -0.02900
C401        C  0.99027853  0.70603320  0.28277050    -0.06000
C402        C  0.96142656  0.71290799  0.32873212     0.20900
C403        C  0.01883676  0.66002131  0.27498434     0.19100
C404        C  0.04660630  0.65319069  0.22873064    -0.17500
C405        C  0.04688560  0.69206096  0.19082599    -0.19700
C406        C  0.01989067  0.73861179  0.19884945     0.20600
C407        C  0.02117776  0.77837673  0.16173309    -0.32700
C408        C  0.99539678  0.82556832  0.17070146     0.01300
C409        C  0.96740771  0.83249456  0.21690004    -0.24000
C410        C  0.96190950  0.67409520  0.36685033    -0.28600
C411        C  0.99236921  0.62936732  0.36048654     0.07000
C412        C  0.02013555  0.62225750  0.31412233    -0.27300
H413        H  0.91125451  0.76486028  0.37134952     0.11700
H414        H  0.91448599  0.83435517  0.30644913     0.12800
H415        H  0.06844899  0.61794027  0.22204438     0.11900
H416        H  0.06881905  0.68600905  0.15553530     0.11100
H417        H  0.04296327  0.77296974  0.12620485     0.16500
H418        H  0.94695215  0.86859513  0.22364170     0.12400
H419        H  0.93988048  0.67924170  0.40225924     0.15300
H420        H  0.04356497  0.58772045  0.30907690     0.15100
C421        C  0.94696283  0.19466836  0.30700581    -0.17800
C422        C  0.94884407  0.23273298  0.34550845    -0.20000
C423        C  0.97779043  0.27816600  0.33789439     0.20700
C424        C  0.00502754  0.28547931  0.29100546    -0.02900
C425        C  0.00258814  0.24743540  0.25194226    -0.06000
C426        C  0.97368316  0.20166577  0.26015836     0.20900
C427        C  0.02901731  0.25525401  0.20467622     0.19100
C428        C  0.05802546  0.30061396  0.19705647    -0.17500
C429        C  0.06089184  0.33809303  0.23601816    -0.19700
C430        C  0.03449446  0.33091529  0.28301635     0.20600
C431        C  0.03670151  0.36854898  0.32201271    -0.32700
C432        C  0.00902832  0.36184636  0.36842218     0.01300
C433        C  0.97962886  0.31663260  0.37612340    -0.24000
C434        C  0.97204488  0.16375119  0.22136662    -0.28600
C435        C  0.99803621  0.17160434  0.17416660     0.07000
C436        C  0.02612874  0.21749789  0.16591547    -0.27300
H437        H  0.92446356  0.15983439  0.31379054     0.11700
H438        H  0.92771883  0.22660593  0.38129306     0.12800
H439        H  0.07858203  0.30705390  0.16098786     0.11900
H440        H  0.08355534  0.37282211  0.22929852     0.11100
H441        H  0.05934748  0.40349037  0.31616620     0.16500
H442        H  0.95785669  0.31177233  0.41174630     0.12400
H443        H  0.95008319  0.12843168  0.22758829     0.15300
H444        H  0.04663933  0.22331160  0.12967235     0.15100
loop_ 
_geom_bond_atom_site_label_1 
_geom_bond_atom_site_label_2 
_geom_bond_distance 
_geom_bond_site_symmetry_2 
_ccdc_geom_bond_type 
N1            C6   1.351   1_455  A
N1            C5   1.351   1_455  A
N1           H33   1.042       .  S
N2            C9   1.351       .  A
N2           C10   1.353       .  A
N3            C8   1.354   1_455  A
N3            C7   1.354   1_455  A
N3           H34   1.042       .  S
N4           C11   1.349       .  A
N4           C12   1.348       .  A
C5           C13   1.388       .  A
C5           C21   1.412       .  A
C6           C22   1.411   1_655  A
C6           C14   1.387       .  A
C7           C15   1.386       .  A
C7           C24   1.416   1_655  A
C8           C23   1.417   1_655  A
C8           C16   1.387       .  A
C9           C21   1.415   1_455  A
C9           C17   1.386       .  A
C10          C24   1.416       .  A
C10          C18   1.386       .  A
C11          C19   1.386       .  A
C11          C22   1.409       .  A
C12          C20   1.387       .  A
C12          C23   1.411       .  A
C13          C14   1.376       .  A
C13          H25   1.082       .  S
C14          H26   1.082       .  S
C15          C16   1.378       .  A
C15          H27   1.082       .  S
C16          H28   1.082       .  S
C17          C18   1.375       .  A
C17          H29   1.082       .  S
C18          H30   1.082       .  S
C19          C20   1.374       .  A
C19          H31   1.082       .  S
C20          H32   1.082       .  S
C21         C411   1.489       .  S
C22         C432   1.485       .  S
C23         C360   1.492       .  S
C24         C387   1.500       .  S
O35         Zr71   2.429       .  S
O35          C46   1.291       .  A
O36         Zr70   2.433   1_554  S
O36          C47   1.292       .  A
O37         Zr43   2.429   1_545  S
O37          C48   1.290       .  A
O38         Zr43   2.441   1_455  S
O38          C49   1.292       .  A
O39         Zr73   2.453       .  S
O39          C49   1.295       .  A
O40         Zr72   2.456   1_554  S
O40          C48   1.295       .  A
O41         Zr43   2.443       .  S
O41          C47   1.294       .  A
O42         Zr43   2.431   1_545  S
O42          C46   1.291       .  A
Zr43         O44   2.339   1_655  S
Zr43         O45   2.343   1_565  S
Zr43         O53   2.340   1_665  S
Zr43         O51   2.343       .  S
O44         Zr70   2.348   1_454  S
O44         Zr73   2.336       .  S
O45         Zr71   2.343       .  S
O45         Zr72   2.339   1_554  S
C46         C435   1.469       .  S
C47         C408   1.475       .  S
C48         C339   1.475       .  S
C49         C315   1.483       .  S
H50          O51   0.966       .  S
O51         Zr70   2.344   1_554  S
O51         Zr72   2.335   1_564  S
H52          O53   0.967       .  S
O53         Zr71   2.351   1_455  S
O53         Zr73   2.340   1_545  S
O54         Zr70   2.444   1_455  S
O54          C77   1.293       .  A
O55         Zr71   2.436   1_456  S
O55          C78   1.292       .  A
O56         Zr72   2.440   1_564  S
O56          C79   1.292       .  A
O57         Zr73   2.435       .  S
O57          C80   1.292       .  A
O58         Zr73   2.435   1_545  S
O58          C81   1.292       .  A
O59         Zr72   2.438       .  S
O59          C82   1.293       .  A
O60         Zr74   2.418   1_655  S
O60          C83   1.289   1_545  A
O61         Zr74   2.445       .  S
O61          C84   1.293       .  A
O62         Zr72   2.439   1_565  S
O62          C83   1.293       .  A
O63         Zr73   2.441   1_546  S
O63          C84   1.293       .  A
O64         Zr70   2.455       .  S
O64          C79   1.295   1_556  A
O65         Zr71   2.456   1_556  S
O65          C82   1.296       .  A
O66         Zr71   2.441   1_456  S
O66          C81   1.293   1_556  A
O67         Zr70   2.427   1_455  S
O67          C80   1.290   1_556  A
O68         Zr74   2.447   1_565  S
O68          C77   1.294       .  A
O69         Zr74   2.442       .  S
O69          C78   1.293       .  A
Zr70         O76   2.331       .  S
Zr70         O88   2.344   1_655  S
Zr71         O75   2.335   1_654  S
Zr71         O86   2.335   1_554  S
Zr72         O76   2.346   1_545  S
Zr72         O86   2.348       .  S
Zr73         O75   2.342   1_564  S
Zr73         O88   2.344   1_554  S
Zr74         O75   2.331       .  S
Zr74         O76   2.347   1_445  S
Zr74         O88   2.336   1_545  S
Zr74         O86   2.341   1_455  S
C77         C384   1.482       .  S
C78         C363   1.478       .  S
C79         C171   1.477       .  S
C80         C216   1.464       .  S
C81         C243   1.473   1_554  S
C82         C192   1.486       .  S
C83         C267   1.464       .  S
C84         C288   1.481       .  S
H85          O86   0.967       .  S
H87          O88   0.967       .  S
N89          C94   1.354   1_565  A
N89          C93   1.355   1_565  A
N89         H121   1.040       .  S
N90          C97   1.349       .  A
N90          C98   1.350       .  A
N91          C96   1.353   1_565  A
N91          C95   1.351   1_565  A
N91         H122   1.041       .  S
N92          C99   1.353   1_545  A
N92         C100   1.353   1_545  A
C93         C101   1.386       .  A
C93         C109   1.418   1_545  A
C94         C110   1.419   1_545  A
C94         C102   1.387       .  A
C95         C103   1.387       .  A
C95         C112   1.413   1_545  A
C96         C111   1.417       .  A
C96         C104   1.388       .  A
C97         C109   1.409       .  A
C97         C105   1.386       .  A
C98         C112   1.409       .  A
C98         C106   1.386       .  A
C99         C107   1.386       .  A
C99         C110   1.416       .  A
C100        C108   1.386       .  A
C100        C111   1.415   1_565  A
C101        C102   1.380       .  A
C101        H113   1.082       .  S
C102        H114   1.082       .  S
C103        C104   1.378       .  A
C103        H115   1.083       .  S
C104        H116   1.082       .  S
C105        C106   1.371       .  A
C105        H117   1.082       .  S
C106        H118   1.082       .  S
C107        C108   1.373       .  A
C107        H119   1.082       .  S
C108        H120   1.082       .  S
C109        C336   1.488   1_565  S
C110        C312   1.498       .  S
C111        C291   1.496       .  S
C112        C264   1.483       .  S
N123        C128   1.353       .  A
N123        C127   1.353       .  A
N123        H155   1.041   1_556  S
N124        C131   1.353   1_556  A
N124        C132   1.352   1_556  A
N125        C130   1.353   1_554  A
N125        C129   1.354       .  A
N125        H156   1.040       .  S
N126        C133   1.351   1_556  A
N126        C134   1.350   1_556  A
C127        C135   1.389       .  A
C127        C143   1.419       .  A
C128        C144   1.413       .  A
C128        C136   1.385       .  A
C129        C137   1.386   1_554  A
C129        C146   1.415       .  A
C130        C145   1.416   1_556  A
C130        C138   1.388       .  A
C131        C143   1.418   1_554  A
C131        C139   1.387       .  A
C132        C146   1.413       .  A
C132        C140   1.384       .  A
C133        C141   1.387       .  A
C133        C144   1.412   1_554  A
C134        C142   1.386       .  A
C134        C145   1.411       .  A
C135        C136   1.377       .  A
C135        H147   1.082       .  S
C136        H148   1.082       .  S
C137        C138   1.376       .  A
C137        H149   1.082       .  S
C138        H150   1.082       .  S
C139        C140   1.375       .  A
C139        H151   1.082       .  S
C140        H152   1.082       .  S
C141        C142   1.372       .  A
C141        H153   1.082       .  S
C142        H154   1.082       .  S
C143        C195   1.500       .  S
C144        C240   1.488       .  S
C145        C219   1.485       .  S
C146        C168   1.491       .  S
C157        C158   1.402       .  A
C157        C162   1.405       .  A
C157        H173   1.083       .  S
C158        C159   1.405       .  A
C158        H174   1.084       .  S
C159        C169   1.408       .  A
C159        C160   1.413       .  A
C160        C166   1.412   1_554  A
C160        C161   1.415       .  A
C161        C163   1.413   1_554  A
C161        C162   1.412       .  A
C162        C170   1.407       .  A
C163        C172   1.405       .  A
C163        C164   1.403       .  A
C164        C165   1.399       .  A
C164        H175   1.083       .  S
C165        C166   1.403       .  A
C165        H176   1.083       .  S
C166        C167   1.403       .  A
C167        C168   1.405   1_556  A
C167        H177   1.084       .  S
C168        C169   1.407       .  A
C169        H178   1.084       .  S
C170        C171   1.407       .  A
C170        H179   1.084       .  S
C171        C172   1.404   1_554  A
C172        H180   1.084       .  S
C181        C182   1.398       .  A
C181        C186   1.403       .  A
C181        H197   1.084       .  S
C182        C183   1.403       .  A
C182        H198   1.084       .  S
C183        C193   1.403       .  A
C183        C184   1.411   1_554  A
C184        C190   1.411       .  A
C184        C185   1.414       .  A
C185        C187   1.412       .  A
C185        C186   1.410   1_556  A
C186        C194   1.401       .  A
C187        C196   1.407       .  A
C187        C188   1.405       .  A
C188        C189   1.402       .  A
C188        H199   1.083       .  S
C189        C190   1.405       .  A
C189        H200   1.084       .  S
C190        C191   1.407       .  A
C191        C192   1.409       .  A
C191        H201   1.084       .  S
C192        C193   1.408   1_556  A
C193        H202   1.084       .  S
C194        C195   1.408   1_554  A
C194        H203   1.084       .  S
C195        C196   1.410       .  A
C196        H204   1.084       .  S
C205        C206   1.399       .  A
C205        C210   1.404       .  A
C205        H221   1.084       .  S
C206        C207   1.403       .  A
C206        H222   1.084       .  S
C207        C217   1.401       .  A
C207        C208   1.413   1_556  A
C208        C214   1.412       .  A
C208        C209   1.409       .  A
C209        C211   1.412       .  A
C209        C210   1.412   1_554  A
C210        C218   1.401       .  A
C211        C220   1.400       .  A
C211        C212   1.403       .  A
C212        C213   1.397       .  A
C212        H223   1.083       .  S
C213        C214   1.402       .  A
C213        H224   1.084       .  S
C214        C215   1.398       .  A
C215        C216   1.401       .  A
C215        H225   1.085       .  S
C216        C217   1.404   1_554  A
C217        H226   1.085       .  S
C218        C219   1.405   1_556  A
C218        H227   1.084       .  S
C219        C220   1.403       .  A
C220        H228   1.084       .  S
C229        C230   1.399       .  A
C229        C234   1.403       .  A
C229        H245   1.084       .  S
C230        C231   1.404       .  A
C230        H246   1.084       .  S
C231        C241   1.403       .  A
C231        C232   1.412       .  A
C232        C238   1.412   1_556  A
C232        C233   1.411       .  A
C233        C235   1.412   1_556  A
C233        C234   1.412       .  A
C234        C242   1.402       .  A
C235        C244   1.402       .  A
C235        C236   1.403       .  A
C236        C237   1.399       .  A
C236        H247   1.084       .  S
C237        C238   1.403       .  A
C237        H248   1.084       .  S
C238        C239   1.402       .  A
C239        C240   1.405   1_554  A
C239        H249   1.084       .  S
C240        C241   1.406       .  A
C241        H250   1.084       .  S
C242        C243   1.405       .  A
C242        H251   1.085       .  S
C243        C244   1.405   1_556  A
C244        H252   1.085       .  S
C253        C254   1.397       .  A
C253        C258   1.403       .  A
C253        H269   1.084       .  S
C254        C255   1.403       .  A
C254        H270   1.084       .  S
C255        C265   1.399       .  A
C255        C256   1.411   1_545  A
C256        C262   1.412       .  A
C256        C257   1.408       .  A
C257        C259   1.412       .  A
C257        C258   1.412   1_565  A
C258        C266   1.399       .  A
C259        C268   1.398       .  A
C259        C260   1.402       .  A
C260        C261   1.397       .  A
C260        H271   1.084       .  S
C261        C262   1.403       .  A
C261        H272   1.083       .  S
C262        C263   1.400       .  A
C263        C264   1.404       .  A
C263        H273   1.084       .  S
C264        C265   1.405   1_565  A
C265        H274   1.084       .  S
C266        C267   1.404   1_545  A
C266        H275   1.085       .  S
C267        C268   1.402       .  A
C268        H276   1.085       .  S
C277        C278   1.399       .  A
C277        C282   1.403       .  A
C277        H293   1.084       .  S
C278        C279   1.403       .  A
C278        H294   1.084       .  S
C279        C289   1.403       .  A
C279        C280   1.411   1_565  A
C280        C286   1.412       .  A
C280        C281   1.413       .  A
C281        C283   1.411       .  A
C281        C282   1.412   1_545  A
C282        C290   1.403       .  A
C283        C292   1.403       .  A
C283        C284   1.404       .  A
C284        C285   1.400       .  A
C284        H295   1.084       .  S
C285        C286   1.404       .  A
C285        H296   1.084       .  S
C286        C287   1.406       .  A
C287        C288   1.408       .  A
C287        H297   1.084       .  S
C288        C289   1.406   1_545  A
C289        H298   1.084       .  S
C290        C291   1.407   1_565  A
C290        H299   1.084       .  S
C291        C292   1.408       .  A
C292        H300   1.084       .  S
C301        C302   1.400       .  A
C301        C306   1.404       .  A
C301        H317   1.084       .  S
C302        C303   1.404       .  A
C302        H318   1.083       .  S
C303        C313   1.405       .  A
C303        C304   1.412       .  A
C304        C310   1.412   1_565  A
C304        C305   1.415       .  A
C305        C307   1.412   1_565  A
C305        C306   1.412       .  A
C306        C314   1.405       .  A
C307        C316   1.407       .  A
C307        C308   1.405       .  A
C308        C309   1.401       .  A
C308        H319   1.084       .  S
C309        C310   1.404       .  A
C309        H320   1.084       .  S
C310        C311   1.406       .  A
C311        C312   1.409   1_545  A
C311        H321   1.084       .  S
C312        C313   1.407       .  A
C313        H322   1.084       .  S
C314        C315   1.406       .  A
C314        H323   1.084       .  S
C315        C316   1.409   1_565  A
C316        H324   1.084       .  S
C325        C326   1.398       .  A
C325        C330   1.403       .  A
C325        H341   1.083       .  S
C326        C327   1.402       .  A
C326        H342   1.083       .  S
C327        C337   1.402       .  A
C327        C328   1.413   1_565  A
C328        C334   1.412       .  A
C328        C329   1.413       .  A
C329        C331   1.412       .  A
C329        C330   1.412   1_545  A
C330        C338   1.402       .  A
C331        C340   1.406       .  A
C331        C332   1.405       .  A
C332        C333   1.402       .  A
C332        H343   1.084       .  S
C333        C334   1.405       .  A
C333        H344   1.084       .  S
C334        C335   1.406       .  A
C335        C336   1.408       .  A
C335        H345   1.084       .  S
C336        C337   1.402   1_545  A
C337        H346   1.084       .  S
C338        C339   1.403   1_565  A
C338        H347   1.084       .  S
C339        C340   1.408       .  A
C340        H348   1.085       .  S
C349        C350   1.399       .  A
C349        C354   1.404       .  A
C349        H365   1.084       .  S
C350        C351   1.403       .  A
C350        H366   1.084       .  S
C351        C361   1.402       .  A
C351        C352   1.412       .  A
C352        C358   1.411   1_455  A
C352        C353   1.412       .  A
C353        C355   1.412   1_455  A
C353        C354   1.412       .  A
C354        C362   1.404       .  A
C355        C364   1.402       .  A
C355        C356   1.403       .  A
C356        C357   1.399       .  A
C356        H367   1.084       .  S
C357        C358   1.404       .  A
C357        H368   1.084       .  S
C358        C359   1.402       .  A
C359        C360   1.408   1_655  A
C359        H369   1.084       .  S
C360        C361   1.406       .  A
C361        H370   1.084       .  S
C362        C363   1.407       .  A
C362        H371   1.084       .  S
C363        C364   1.406   1_455  A
C364        H372   1.085       .  S
C373        C374   1.401       .  A
C373        C378   1.405       .  A
C373        H389   1.084       .  S
C374        C375   1.404       .  A
C374        H390   1.084       .  S
C375        C385   1.406       .  A
C375        C376   1.412       .  A
C376        C382   1.412   1_455  A
C376        C377   1.415       .  A
C377        C379   1.411   1_455  A
C377        C378   1.411       .  A
C378        C386   1.406       .  A
C379        C388   1.404       .  A
C379        C380   1.404       .  A
C380        C381   1.400       .  A
C380        H391   1.083       .  S
C381        C382   1.404       .  A
C381        H392   1.084       .  S
C382        C383   1.405       .  A
C383        C384   1.407   1_655  A
C383        H393   1.084       .  S
C384        C385   1.408       .  A
C385        H394   1.084       .  S
C386        C387   1.410       .  A
C386        H395   1.084       .  S
C387        C388   1.408   1_455  A
C388        H396   1.084       .  S
C397        C398   1.398       .  A
C397        C402   1.403       .  A
C397        H413   1.084       .  S
C398        C399   1.403       .  A
C398        H414   1.084       .  S
C399        C409   1.402       .  A
C399        C400   1.412       .  A
C400        C406   1.411   1_655  A
C400        C401   1.411       .  A
C401        C403   1.411   1_655  A
C401        C402   1.412       .  A
C402        C410   1.401       .  A
C403        C412   1.401       .  A
C403        C404   1.403       .  A
C404        C405   1.399       .  A
C404        H415   1.084       .  S
C405        C406   1.403       .  A
C405        H416   1.084       .  S
C406        C407   1.402       .  A
C407        C408   1.406   1_455  A
C407        H417   1.085       .  S
C408        C409   1.405       .  A
C409        H418   1.084       .  S
C410        C411   1.405       .  A
C410        H419   1.084       .  S
C411        C412   1.407   1_655  A
C412        H420   1.084       .  S
C421        C422   1.398       .  A
C421        C426   1.403       .  A
C421        H437   1.084       .  S
C422        C423   1.403       .  A
C422        H438   1.084       .  S
C423        C433   1.400       .  A
C423        C424   1.411   1_655  A
C424        C430   1.412       .  A
C424        C425   1.409       .  A
C425        C427   1.411       .  A
C425        C426   1.412   1_455  A
C426        C434   1.400       .  A
C427        C436   1.398       .  A
C427        C428   1.403       .  A
C428        C429   1.397       .  A
C428        H439   1.084       .  S
C429        C430   1.403       .  A
C429        H440   1.084       .  S
C430        C431   1.400       .  A
C431        C432   1.405       .  A
C431        H441   1.084       .  S
C432        C433   1.405   1_455  A
C433        H442   1.084       .  S
C434        C435   1.405       .  A
C434        H443   1.085       .  S
C435        C436   1.404   1_655  A
C436        H444   1.085       .  S
