geometry optimzed in LAMMPS
_audit_creation_date              2020-11-30 
_audit_creation_method            'lammps2cif' 
_symmetry_space_group_name_H-M    'P1' 
_symmetry_Int_Tables_number       1 
_symmetry_cell_setting            triclinic 
loop_ 
_symmetry_equiv_pos_as_xyz 
  x,y,z 
_cell_length_a                    39.60728343 
_cell_length_b                    39.726720155000216 
_cell_length_c                    43.421668376028144 
_cell_angle_alpha                 88.92517724747526 
_cell_angle_beta                  91.03267219865991 
_cell_angle_gamma                 120.79603262340409 
loop_ 
_atom_site_label 
_atom_site_type_symbol 
_atom_site_fract_x 
_atom_site_fract_y 
_atom_site_fract_z 
_atom_site_charge 
In1        In  0.00290334  0.75965010  0.24257348     1.36900
C2          C  0.06585184  0.83153228  0.24085206     0.77800
O3          O  0.00222828  0.75745953  0.29417413    -0.60700
O4          O  0.00370574  0.71187637  0.27048516    -0.51600
C5          C  0.93455618  0.75729396  0.23812733     0.70400
O6          O  0.96740250  0.78848314  0.23625341    -0.46400
C7          C  0.02030320  0.73007787  0.19545659     0.75200
O8          O  0.04587816  0.81473239  0.21718810    -0.58300
O9          O  0.03911203  0.73865080  0.22056002    -0.48400
O10         O  0.05236783  0.81219135  0.26541027    -0.54700
C11         C  0.00533850  0.72747667  0.29593366     0.85300
O12         O  0.93669064  0.72688208  0.24213265    -0.56600
O13         O  0.99047430  0.73372138  0.19506108    -0.59900
In14       In  0.28415992  0.04377679  0.23933695     1.36900
C15         C  0.21323993  0.97886846  0.24089674     0.77800
O16         O  0.28662787  0.04323978  0.18784262    -0.60700
O17         O  0.33334939  0.04432570  0.21353603    -0.51600
C18         C  0.28420073  0.11089815  0.23835834     0.70400
O19         O  0.25354063  0.07761907  0.23700062    -0.46400
C20         C  0.31346108  0.02900420  0.28982481     0.75200
O21         O  0.23387804  0.99113053  0.21708479    -0.58300
O22         O  0.31338408  0.01530274  0.26387875    -0.48400
O23         O  0.22845535  0.00051271  0.26389888    -0.54700
C24         C  0.31742052  0.04137851  0.18749364     0.85300
O25         O  0.31558271  0.11002956  0.24044517    -0.56600
O26         O  0.30143037  0.05289688  0.28965178    -0.59900
In27       In  0.26953490  0.31582458  0.23304550     1.36900
C28         C  0.19715792  0.30354926  0.23787406     0.77800
O29         O  0.29164901  0.32494083  0.28181122    -0.60700
O30         O  0.29278799  0.37254573  0.25737499    -0.51600
C31         C  0.27352614  0.25099820  0.23369277     0.70400
O32         O  0.24188021  0.25078666  0.22965012    -0.46400
C33         C  0.30594782  0.35603071  0.18253086     0.75200
O34         O  0.21549521  0.31296742  0.21280834    -0.58300
O35         O  0.31934077  0.36777612  0.20920112    -0.48400
O36         O  0.21523376  0.29886145  0.26003284    -0.54700
C37         C  0.29858469  0.35966704  0.28243479     0.85300
O38         O  0.30332332  0.28470821  0.23704454    -0.56600
O39         O  0.27518472  0.32270091  0.18154234    -0.59900
In40       In  0.99366262  0.31758362  0.24969058     1.36900
C41         C  0.05233400  0.30356681  0.24645462     0.77800
O42         O  0.98254773  0.33101524  0.20114566    -0.60700
O43         O  0.03252011  0.37441689  0.22564113    -0.51600
C44         C  0.92405710  0.25198984  0.24893538     0.70400
O45         O  0.95618884  0.25294434  0.25160894    -0.46400
C46         C  0.99813274  0.35372507  0.30163896     0.75200
O47         O  0.02781673  0.29558240  0.22489287    -0.58300
O48         O  0.99669483  0.36753372  0.27559787    -0.48400
O49         O  0.04586296  0.31748854  0.26992639    -0.54700
C50         C  0.01357937  0.36424649  0.20061904     0.85300
O51         O  0.92736014  0.28531270  0.24686154    -0.56600
O52         O  0.99390152  0.32009242  0.30122316    -0.59900
In53       In  0.71197663  0.03397725  0.24979103     1.36900
C54         C  0.71691146  0.96932991  0.24873544     0.77800
O55         O  0.70956880  0.02877681  0.30143877    -0.60700
O56         O  0.66018896  0.02389556  0.27734656    -0.51600
C57         C  0.77552881  0.10524215  0.24850189     0.70400
O58         O  0.77545168  0.07425510  0.24285118    -0.46400
C59         C  0.67732346  0.02797439  0.19577187     0.75200
O60         O  0.74298993  0.00060486  0.26100869    -0.58300
O61         O  0.66010146  0.02349415  0.22096639    -0.48400
O62         O  0.68845612  0.97130301  0.23766268    -0.54700
C63         C  0.67482803  0.02174649  0.30274810     0.85300
O64         O  0.74209383  0.10006484  0.25452188    -0.56600
O65         O  0.71322533  0.03878296  0.19814105    -0.59900
In66       In  0.72229022  0.75968187  0.23742749     1.36900
C67         C  0.72662401  0.82898491  0.24174328     0.77800
O68         O  0.72195297  0.76319439  0.18560158    -0.60700
O69         O  0.67451423  0.71373805  0.20762236    -0.51600
C70         C  0.78689295  0.75483590  0.23593248     0.70400
O71         O  0.78670193  0.78613926  0.23130556    -0.46400
C72         C  0.67917518  0.72684389  0.28750384     0.75200
O73         O  0.74922555  0.82123015  0.25695580    -0.58300
O74         O  0.66472416  0.72133837  0.26077090    -0.48400
O75         O  0.70319082  0.80183991  0.22432569    -0.54700
C76         C  0.68881957  0.73234294  0.18280844     0.85300
O77         O  0.75337424  0.72526657  0.24094059    -0.56600
O78         O  0.71612870  0.74721616  0.28870964    -0.59900
In79       In  0.32295147  0.42255675  0.36185829     1.36900
C80         C  0.30979797  0.38254413  0.31054638     0.77800
O81         O  0.25761321  0.39314106  0.36495661    -0.60700
O82         O  0.29008470  0.45506448  0.36075285    -0.51600
C83         C  0.32801863  0.39944797  0.41873662     0.70400
O84         O  0.33373917  0.38502946  0.39517681    -0.46400
C85         C  0.39466764  0.48476968  0.35632407     0.75200
O86         O  0.30833852  0.36778046  0.33675630    -0.58300
O87         O  0.36384732  0.48650156  0.35387524    -0.48400
O88         O  0.31936941  0.41801206  0.31051781    -0.54700
C89         C  0.25670010  0.42441477  0.36303276     0.85300
O90         O  0.31889050  0.42502672  0.41297203    -0.56600
O91         O  0.38876667  0.45088634  0.36140884    -0.59900
In92       In  0.60887294  0.69699418  0.36384449     1.36900
C93         C  0.65443954  0.71324730  0.31488983     0.77800
O94         O  0.57621152  0.63129462  0.36273752    -0.60700
O95         O  0.54613835  0.66081862  0.34952276    -0.51600
C96         C  0.62416746  0.68784394  0.42246943     0.70400
O97         O  0.63974799  0.68097052  0.40016142    -0.46400
C98         C  0.60723667  0.76268305  0.36643337     0.75200
O99         O  0.66800921  0.71859320  0.34198423    -0.58300
O100        O  0.57670290  0.72975684  0.36219059    -0.48400
O101        O  0.61772025  0.69762727  0.31301795    -0.54700
C102        C  0.54431886  0.62849490  0.35392743     0.85300
O103        O  0.60081128  0.69912687  0.41451172    -0.56600
O104        O  0.63849588  0.76171210  0.36895778    -0.59900
In105      In  0.66473292  0.65014591  0.60855882     1.36900
C106        C  0.67854381  0.69605507  0.65664229     0.77800
O107        O  0.59895906  0.61580596  0.61457702    -0.60700
O108        O  0.62929961  0.58492969  0.61062584    -0.51600
C109        C  0.65532934  0.66480833  0.54985978     0.70400
O110        O  0.64696838  0.67929601  0.57206223    -0.46400
C111        C  0.73296425  0.65236376  0.61305933     0.75200
O112        O  0.68752798  0.70952309  0.62959742    -0.58300
O113        O  0.70115009  0.62399741  0.62302971    -0.48400
O114        O  0.65959835  0.65923189  0.65868874    -0.54700
C115        C  0.59663009  0.58295609  0.61310349     0.85300
O116        O  0.66910660  0.64360530  0.55795148    -0.56600
O117        O  0.72951963  0.67929603  0.60042363    -0.59900
In118      In  0.38281327  0.36633638  0.60099471     1.36900
C119        C  0.34434793  0.35825966  0.65265106     0.77800
O120        O  0.35410770  0.30139013  0.59409611    -0.60700
O121        O  0.41126079  0.33149418  0.61361937    -0.51600
C122        C  0.35924529  0.37264668  0.54448846     0.70400
O123        O  0.34654898  0.38021859  0.56824696    -0.46400
C124        C  0.45032576  0.43441738  0.60320946     0.75200
O125        O  0.32670080  0.34542291  0.62730164    -0.58300
O126        O  0.41733068  0.43165230  0.60611366    -0.48400
O127        O  0.38121086  0.37641840  0.65122015    -0.54700
C128        C  0.38273570  0.29920946  0.60474499     0.85300
O129        O  0.38370410  0.36194733  0.54998183    -0.56600
O130        O  0.44845165  0.40225866  0.59852937    -0.59900
In131      In  0.04234852  0.42090203  0.37882595     1.36900
C132        C  0.00884147  0.37675333  0.32977258     0.77800
O133        O  0.01350897  0.45622264  0.37086625    -0.60700
O134        O  0.07420651  0.48624376  0.38257119    -0.51600
C135        C  0.01558434  0.40087296  0.43599531     0.70400
O136        O  0.99268057  0.39030353  0.41295095    -0.46400
C137        C  0.10960279  0.42184599  0.37277603     0.75200
O138        O  0.00775683  0.36225764  0.35605426    -0.58300
O139        O  0.10516547  0.44963629  0.36341287    -0.48400
O140        O  0.02386828  0.41337033  0.32912409    -0.54700
C141        C  0.04430087  0.48867335  0.37625472     0.85300
O142        O  0.05146455  0.42062963  0.42937193    -0.56600
O143        O  0.07974528  0.39411272  0.38556090    -0.59900
In144      In  0.95118680  0.37700022  0.62240786     1.36900
C145        C  0.98284021  0.36751847  0.67371540     0.77800
O146        O  0.98423313  0.44305950  0.62382902    -0.60700
O147        O  0.92222528  0.41196316  0.62697004    -0.51600
C148        C  0.97218476  0.38089659  0.56423082     0.70400
O149        O  0.99496026  0.38523612  0.58651998    -0.46400
C150        C  0.88577126  0.30756201  0.62226981     0.75200
O151        O  0.99862649  0.37192200  0.64784714    -0.58300
O152        O  0.88688647  0.33875790  0.62931813    -0.48400
O153        O  0.95267597  0.37040465  0.67343181    -0.54700
C154        C  0.95344383  0.44482798  0.62577939     0.85300
O155        O  0.93894619  0.37457707  0.57203671    -0.56600
O156        O  0.91860816  0.31191722  0.61541172    -0.59900
In157      In  0.94632293  0.65335683  0.61778338     1.36900
C158        C  0.97806631  0.69245568  0.66928166     0.77800
O159        O  0.91406967  0.68572260  0.61084873    -0.60700
O160        O  0.88191293  0.62585477  0.62459041    -0.51600
C161        C  0.97108456  0.67271320  0.56012980     0.70400
O162        O  0.99395424  0.68720824  0.58301259    -0.46400
C163        C  0.94749924  0.58728515  0.62211667     0.75200
O164        O  0.99096023  0.70739896  0.64311283    -0.58300
O165        O  0.91611475  0.58801959  0.62050876    -0.48400
O166        O  0.95032669  0.65738677  0.66904152    -0.54700
C167        C  0.88104827  0.65631729  0.61742915     0.85300
O168        O  0.93581601  0.64908642  0.56706697    -0.56600
O169        O  0.97832438  0.62063836  0.62186458    -0.59900
In170      In  0.04538096  0.70159005  0.37547833     1.36900
C171        C  0.01487883  0.71472002  0.32490288     0.77800
O172        O  0.08545942  0.76521420  0.38478095    -0.60700
O173        O  0.10900509  0.73584718  0.36117236    -0.51600
C174        C  0.01842326  0.69438686  0.43253823     0.70400
O175        O  0.99620452  0.68622914  0.40917493    -0.46400
C176        C  0.04349033  0.63401687  0.37322690     0.75200
O177        O  0.01501450  0.72913195  0.35053333    -0.58300
O178        O  0.07463925  0.66643972  0.37768396    -0.48400
O179        O  0.02742536  0.69134867  0.32565171    -0.54700
C180        C  0.11511331  0.76761761  0.37231543     0.85300
O181        O  0.05361871  0.70592945  0.42628049    -0.56600
O182        O  0.01297740  0.63625965  0.36964270    -0.59900
In183      In  0.38892435  0.08947995  0.61013475     1.36900
C184        C  0.34491670  0.05911540  0.66001501     0.77800
O185        O  0.42136110  0.05743558  0.61918361    -0.60700
O186        O  0.45390529  0.11936225  0.61331890    -0.51600
C187        C  0.37349633  0.06328258  0.55229550     0.70400
O188        O  0.35726178  0.04111991  0.57531716    -0.46400
C189        C  0.38862914  0.15638602  0.61037122     0.75200
O190        O  0.32995832  0.05381192  0.63337252    -0.58300
O191        O  0.41752660  0.15399209  0.62013103    -0.48400
O192        O  0.38187058  0.07717379  0.66075799    -0.54700
C193        C  0.45474261  0.08832643  0.61789071     0.85300
O194        O  0.39701865  0.09845975  0.55917072    -0.56600
O195        O  0.36039928  0.12461583  0.60038498    -0.59900
In196      In  0.33280768  0.98192981  0.36892062     1.36900
C197        C  0.32342202  0.01520662  0.31812636     0.77800
O198        O  0.39885238  0.01381247  0.36855895    -0.60700
O199        O  0.36731990  0.95214278  0.36370641    -0.51600
C200        C  0.34224656  0.00702906  0.42657912     0.70400
O201        O  0.34941077  0.02953059  0.40354612    -0.46400
C202        C  0.26352291  0.91521134  0.36979179     0.75200
O203        O  0.31840703  0.02405042  0.34467801    -0.58300
O204        O  0.29458703  0.91753851  0.36037877    -0.48400
O205        O  0.33493374  0.99103015  0.31769493    -0.54700
C206        C  0.40041173  0.98308487  0.36589692     0.85300
O207        O  0.32983015  0.97185732  0.41983613    -0.56600
O208        O  0.26792940  0.94738094  0.37841237    -0.59900
In209      In  0.60861595  0.97469161  0.38070488     1.36900
C210        C  0.65196498  0.00845210  0.33101833     0.77800
O211        O  0.63872439  0.94017644  0.38541120    -0.60700
O212        O  0.57838117  0.91015258  0.37291645    -0.51600
C213        C  0.62697406  0.00122236  0.43811801     0.70400
O214        O  0.64082121  0.02299359  0.41462461    -0.46400
C215        C  0.54278383  0.97620328  0.37311471     0.75200
O216        O  0.66704119  0.00980556  0.35707043    -0.58300
O217        O  0.54340547  0.94475196  0.37274407    -0.48400
O218        O  0.61512164  0.99190145  0.33072966    -0.54700
C219        C  0.60872776  0.90811315  0.37813286     0.85300
O220        O  0.60397114  0.96557892  0.43214290    -0.56600
O221        O  0.57594970  0.00661858  0.37739824    -0.59900
In222      In  0.67014692  0.09361810  0.61782811     1.36900
C223        C  0.68474672  0.06468740  0.66838073     0.77800
O224        O  0.73478828  0.13001172  0.60981744    -0.60700
O225        O  0.70583036  0.15724061  0.62877433    -0.51600
C226        C  0.66061604  0.06525355  0.56121325     0.70400
O227        O  0.65140278  0.04377324  0.58505986    -0.46400
C228        C  0.60262124  0.09219314  0.62040586     0.75200
O229        O  0.68699822  0.05360539  0.64186896    -0.58300
O230        O  0.63475269  0.12241743  0.61361332    -0.48400
O231        O  0.67230765  0.08814810  0.66904511    -0.54700
C232        C  0.73777733  0.16092169  0.62014172     0.85300
O233        O  0.67561838  0.10117576  0.56665800    -0.56600
O234        O  0.60524500  0.06250111  0.62688108    -0.59900
In235      In  0.73165631  0.04176414  0.74534240     1.36900
C236        C  0.80457346  0.10476561  0.74407671     0.77800
O237        O  0.71082248  0.03022084  0.69604370    -0.60700
O238        O  0.70181164  0.07006543  0.72163987    -0.51600
C239        C  0.72646406  0.97217185  0.74306748     0.70400
O240        O  0.75822391  0.00446137  0.74109997    -0.46400
C241        C  0.70123524  0.04893605  0.79711141     0.75200
O242        O  0.78469964  0.08969219  0.72001189    -0.58300
O243        O  0.68543630  0.04628337  0.77111983    -0.48400
O244        O  0.78751053  0.08686559  0.76834952    -0.54700
C245        C  0.69860898  0.05396039  0.69615133     0.85300
O246        O  0.69667342  0.97529295  0.74674093    -0.56600
O247        O  0.73038291  0.04428263  0.79698127    -0.59900
In248      In  0.72919026  0.76114479  0.73425643     1.36900
C249        C  0.80109661  0.77106449  0.73718541     0.77800
O250        O  0.70782787  0.75304380  0.78306295    -0.60700
O251        O  0.70545587  0.70490154  0.76028372    -0.51600
C252        C  0.72748628  0.82720300  0.73505246     0.70400
O253        O  0.75868830  0.82625154  0.73348124    -0.46400
C254        C  0.69287414  0.72083114  0.68394786     0.75200
O255        O  0.78164199  0.76395765  0.71247259    -0.58300
O256        O  0.68177395  0.70731291  0.71071749    -0.48400
O257        O  0.78447802  0.77503571  0.76002400    -0.54700
C258        C  0.70060442  0.71824519  0.78480910     0.85300
O259        O  0.69655331  0.79382930  0.73546542    -0.56600
O260        O  0.72022378  0.75616047  0.68280864    -0.59900
In261      In  0.01241891  0.32640755  0.75060308     1.36900
C262        C  0.95150252  0.25286385  0.74937360     0.77800
O263        O  0.01680541  0.33148827  0.80202652    -0.60700
O264        O  0.00522530  0.37062005  0.77634328    -0.51600
C265        C  0.08176569  0.33139385  0.74862632     0.70400
O266        O  0.04939861  0.29955106  0.74810569    -0.46400
C267        C  0.99597642  0.35642853  0.70168051     0.75200
O268        O  0.97112229  0.27045116  0.72580794    -0.58300
O269        O  0.97589473  0.34633254  0.72587322    -0.48400
O270        O  0.96409078  0.27249039  0.77363414    -0.54700
C271        C  0.00781309  0.35762161  0.80241045     0.85300
O272        O  0.07878987  0.36150103  0.74988636    -0.56600
O273        O  0.02617239  0.35341682  0.70294652    -0.59900
In274      In  0.29083872  0.32564102  0.73660874     1.36900
C275        C  0.28411064  0.25581106  0.73326671     0.77800
O276        O  0.28773784  0.32669454  0.68481295    -0.60700
O277        O  0.34267782  0.36341290  0.70702258    -0.51600
C278        C  0.22839136  0.33366300  0.73938358     0.70400
O279        O  0.22717600  0.30141395  0.74057859    -0.46400
C280        C  0.32731214  0.35044409  0.79060998     0.75200
O281        O  0.25505940  0.25987003  0.73780706    -0.58300
O282        O  0.33716160  0.37231268  0.76705199    -0.48400
O283        O  0.31643400  0.28747046  0.73060991    -0.54700
C284        C  0.32416351  0.35007176  0.68207611     0.85300
O285        O  0.26249959  0.36308108  0.73615148    -0.56600
O286        O  0.29758209  0.31694982  0.78703655    -0.59900
In287      In  0.00680153  0.75770384  0.74744182     1.36900
C288        C  0.94524835  0.76791492  0.74336338     0.77800
O289        O  0.01937290  0.74991220  0.69865110    -0.60700
O290        O  0.97400082  0.70088814  0.72281214    -0.51600
C291        C  0.07640723  0.82348502  0.74707459     0.70400
O292        O  0.04409679  0.82236402  0.74811612    -0.46400
C293        C  0.00118195  0.71952519  0.79956072     0.75200
O294        O  0.95623391  0.75949182  0.76818236    -0.58300
O295        O  0.99945500  0.70507851  0.77356989    -0.48400
O296        O  0.96671173  0.77257788  0.72081235    -0.54700
C297        C  0.99159004  0.71474389  0.69772707     0.85300
O298        O  0.07326924  0.79022287  0.74652018    -0.56600
O299        O  0.00925261  0.75458219  0.79895903    -0.59900
In300      In  0.28550418  0.04448529  0.74026168     1.36900
C301        C  0.27918169  0.10828378  0.73684074     0.77800
O302        O  0.29321617  0.05175042  0.79181437    -0.60700
O303        O  0.34020253  0.05636384  0.76587864    -0.51600
C304        C  0.22085477  0.97388523  0.74190844     0.70400
O305        O  0.22114127  0.00457124  0.73384773    -0.46400
C306        C  0.32200201  0.04899968  0.68831816     0.75200
O307        O  0.25875001  0.08020294  0.75491894    -0.58300
O308        O  0.33809425  0.05427931  0.71448207    -0.48400
O309        O  0.30238410  0.10339539  0.72083173    -0.54700
C310        C  0.32798361  0.05866830  0.79180631     0.85300
O311        O  0.25437913  0.97895844  0.74813141    -0.56600
O312        O  0.28598457  0.03828719  0.68864829    -0.59900
In313      In  0.67912695  0.65508845  0.86509643     1.36900
C314        C  0.69028477  0.69557379  0.81343349     0.77800
O315        O  0.74431595  0.68574379  0.87202977    -0.60700
O316        O  0.71401728  0.62601593  0.85897525    -0.51600
C317        C  0.67102800  0.67260851  0.92229400     0.70400
O318        O  0.66742654  0.68984427  0.89885835    -0.46400
C319        C  0.60965506  0.59109708  0.85855306     0.75200
O320        O  0.69189007  0.71006579  0.83939378    -0.58300
O321        O  0.64109760  0.59065854  0.86168820    -0.48400
O322        O  0.68158363  0.66037551  0.81399901    -0.54700
C323        C  0.74649876  0.65610518  0.86539208     0.85300
O324        O  0.67974284  0.64709172  0.91628931    -0.56600
O325        O  0.61382862  0.62474539  0.85852737    -0.59900
In326      In  0.39795275  0.37705469  0.86777087     1.36900
C327        C  0.35048490  0.36163438  0.81911169     0.77800
O328        O  0.43137898  0.44218637  0.86535470    -0.60700
O329        O  0.46165003  0.41182430  0.85740278    -0.51600
C330        C  0.38126146  0.38696013  0.92499173     0.70400
O331        O  0.36295188  0.38912770  0.90163377    -0.46400
C332        C  0.40687226  0.31542641  0.86857498     0.75200
O333        O  0.34036256  0.33999680  0.84274885    -0.58300
O334        O  0.42950884  0.34622446  0.85362880    -0.48400
O335        O  0.38357920  0.39228232  0.82111401    -0.54700
C336        C  0.46348215  0.44437103  0.85917686     0.85300
O337        O  0.40779023  0.37970002  0.91882594    -0.56600
O338        O  0.37986482  0.31651772  0.88261743    -0.59900
In339      In  0.34001683  0.42896454  0.10678020     1.36900
C340        C  0.32229826  0.38091906  0.15513987     0.77800
O341        O  0.40593039  0.46125322  0.10873786    -0.60700
O342        O  0.37749130  0.49346666  0.11619332    -0.51600
C343        C  0.34984091  0.41421434  0.04916994     0.70400
O344        O  0.35610292  0.39835525  0.07233527    -0.46400
C345        C  0.27321770  0.42926815  0.10812097     0.75200
O346        O  0.31091116  0.36858106  0.12826735    -0.58300
O347        O  0.30552303  0.45754296  0.11759080    -0.48400
O348        O  0.34600081  0.41721164  0.15685278    -0.54700
C349        C  0.40958794  0.49418486  0.11374791     0.85300
O350        O  0.33813024  0.43734892  0.05566918    -0.56600
O351        O  0.27575730  0.40183956  0.09655701    -0.59900
In352      In  0.62325555  0.71105661  0.10285816     1.36900
C353        C  0.66662372  0.72149503  0.15366023     0.77800
O354        O  0.65224811  0.77650432  0.10023707    -0.60700
O355        O  0.59081640  0.74355486  0.10703145    -0.51600
C356        C  0.64205947  0.70467574  0.04556510     0.70400
O357        O  0.65637573  0.69716136  0.06908327    -0.46400
C358        C  0.55749678  0.64141644  0.10766756     0.75200
O359        O  0.68164403  0.73720237  0.12819311    -0.58300
O360        O  0.55944747  0.67315581  0.11448157    -0.48400
O361        O  0.63006348  0.69833822  0.15264020    -0.54700
C362        C  0.62117113  0.77709860  0.10435559     0.85300
O363        O  0.61898247  0.71666112  0.05150562    -0.56600
O364        O  0.58954386  0.64537698  0.09883620    -0.59900
In365      In  0.67695556  0.09481809  0.87200358     1.36900
C366        C  0.68948409  0.06094807  0.82463766     0.77800
O367        O  0.61165148  0.06518089  0.86910081    -0.60700
O368        O  0.64476207  0.12718228  0.86483416    -0.51600
C369        C  0.66585722  0.06718974  0.92959973     0.70400
O370        O  0.65877138  0.04549841  0.90656856    -0.46400
C371        C  0.74453834  0.16270559  0.87074786     0.75200
O372        O  0.70564395  0.06448004  0.85054115    -0.58300
O373        O  0.71469287  0.15731669  0.85564456    -0.48400
O374        O  0.66498887  0.07211746  0.82356530    -0.54700
C375        C  0.61119692  0.09655491  0.86550170     0.85300
O376        O  0.67849010  0.10263536  0.92287826    -0.56600
O377        O  0.73927090  0.13341034  0.88640530    -0.59900
In378      In  0.34376034  0.99983424  0.11098078     1.36900
C379        C  0.33058275  0.03166273  0.15947511     0.77800
O380        O  0.28060011  0.95877922  0.09902802    -0.60700
O381        O  0.30975902  0.93685994  0.12676621    -0.51600
C382        C  0.35194473  0.02608482  0.05321270     0.70400
O383        O  0.33823190  0.99059082  0.06037168    -0.46400
C384        C  0.41080579  0.00013639  0.11416756     0.75200
O385        O  0.31468848  0.02900540  0.13357226    -0.58300
O386        O  0.37758323  0.96940984  0.11684713    -0.48400
O387        O  0.35571155  0.02128331  0.15995290    -0.54700
C388        C  0.27822270  0.92986509  0.11355856     0.85300
O389        O  0.36075179  0.04855220  0.07597654    -0.56600
O390        O  0.40976960  0.03120016  0.11053643    -0.59900
In391      In  0.61662571  0.98738224  0.11415680     1.36900
C392        C  0.65616202  0.01713900  0.16633820     0.77800
O393        O  0.58556079  0.02104336  0.11124900    -0.60700
O394        O  0.55240504  0.96054153  0.12306496    -0.51600
C395        C  0.63716943  0.01480842  0.05692435     0.70400
O396        O  0.65268515  0.03617748  0.08020219    -0.46400
C397        C  0.61589321  0.91992385  0.11306755     0.75200
O398        O  0.67310905  0.02351665  0.14079336    -0.58300
O399        O  0.58494919  0.92137165  0.11525467    -0.48400
O400        O  0.61924762  0.99756850  0.16492186    -0.54700
C401        C  0.55236120  0.99188697  0.11784126     0.85300
O402        O  0.61179192  0.97978509  0.06329966    -0.56600
O403        O  0.64693373  0.95304168  0.11188744    -0.59900
In404      In  0.40093829  0.10111356  0.86795423     1.36900
C405        C  0.35322584  0.07101012  0.81926740     0.77800
O406        O  0.37938885  0.14044214  0.88137074    -0.60700
O407        O  0.43258277  0.16560552  0.85646825    -0.51600
C408        C  0.38286679  0.07460088  0.92537679     0.70400
O409        O  0.36675811  0.05269176  0.90244000    -0.46400
C410        C  0.46530765  0.09687803  0.86357977     0.75200
O411        O  0.34066896  0.07036332  0.84578962    -0.58300
O412        O  0.46545785  0.12866478  0.86150736    -0.48400
O413        O  0.38974245  0.08519257  0.81788358    -0.54700
C414        C  0.40773266  0.17095575  0.86985900     0.85300
O415        O  0.40839078  0.10940020  0.91855903    -0.56600
O416        O  0.43165065  0.06684772  0.86702105    -0.59900
In417      In  0.06634631  0.71059523  0.11860677     1.36900
C418        C  0.03445312  0.72006213  0.16831201     0.77800
O419        O  0.03190751  0.64509281  0.12646366    -0.60700
O420        O  0.09364869  0.67377431  0.12125668    -0.51600
C421        C  0.04244435  0.70372456  0.06042269     0.70400
O422        O  0.02221747  0.70393138  0.08250935    -0.46400
C423        C  0.13209657  0.78037998  0.11720398     0.75200
O424        O  0.01888079  0.71569067  0.14197860    -0.58300
O425        O  0.13055668  0.75008241  0.12835428    -0.48400
O426        O  0.06510406  0.71795982  0.16926770    -0.54700
C427        C  0.06184958  0.64181226  0.12495770     0.85300
O428        O  0.07476340  0.70712491  0.06837468    -0.56600
O429        O  0.09962967  0.77491143  0.10713652    -0.59900
In430      In  0.96148475  0.37554856  0.87953770     1.36900
C431        C  0.99598996  0.36811921  0.83053661     0.77800
O432        O  0.92519957  0.31071994  0.88683367    -0.60700
O433        O  0.89837313  0.33948337  0.86512918    -0.51600
C434        C  0.98523613  0.38016783  0.93750765     0.70400
O435        O  0.00857125  0.39093489  0.91510585    -0.46400
C436        C  0.96173650  0.44249480  0.87648669     0.75200
O437        O  0.99879529  0.35566145  0.85676546    -0.58300
O438        O  0.93062149  0.40932930  0.87671693    -0.48400
O439        O  0.97818316  0.38675096  0.82986575    -0.54700
C440        C  0.89443342  0.30765172  0.87511609     0.85300
O441        O  0.94980593  0.36679219  0.93003065    -0.56600
O442        O  0.99294446  0.44124777  0.87780723    -0.59900
In443      In  0.95724524  0.65284102  0.87798562     1.36900
C444        C  0.98997076  0.69612730  0.82792615     0.77800
O445        O  0.98762355  0.61881416  0.87439451    -0.60700
O446        O  0.92545878  0.58700556  0.87765311    -0.51600
C447        C  0.98410668  0.67251860  0.93516754     0.70400
O448        O  0.00640621  0.68420944  0.91208924    -0.46400
C449        C  0.89198212  0.65570851  0.87350661     0.75200
O450        O  0.99452957  0.71095400  0.85415149    -0.58300
O451        O  0.89395215  0.62658661  0.86488577    -0.48400
O452        O  0.97136601  0.65928349  0.82767259    -0.54700
C453        C  0.95648056  0.58566315  0.87540748     0.85300
O454        O  0.94817182  0.65062864  0.92880814    -0.56600
O455        O  0.92346284  0.68303788  0.88477641    -0.59900
In456      In  0.06157973  0.42965723  0.12197583     1.36900
C457        C  0.02858947  0.38828503  0.17272641     0.77800
O458        O  0.09466185  0.39859685  0.11466936    -0.60700
O459        O  0.12588054  0.45688820  0.13096457    -0.51600
C460        C  0.03829253  0.41056852  0.06394994     0.70400
O461        O  0.01638375  0.39217740  0.08643320    -0.46400
C462        C  0.06033985  0.49570528  0.12433947     0.75200
O463        O  0.01361957  0.37645950  0.14641350    -0.58300
O464        O  0.09137183  0.49458768  0.12239586    -0.48400
O465        O  0.05929120  0.42162533  0.17308858    -0.54700
C466        C  0.12745381  0.42762476  0.12235973     0.85300
O467        O  0.07168573  0.43842462  0.07148921    -0.56600
O468        O  0.02938890  0.46253070  0.12603674    -0.59900
C469        C  0.03823919  0.41163269  0.97647774    -0.12100
C470        C  0.99870698  0.38464152  0.96985953     0.04900
C471        C  0.97281231  0.36422938  0.99434986    -0.07400
C472        C  0.98651824  0.37238774  0.02480357    -0.08100
C473        C  0.02571767  0.40079259  0.03146273    -0.02700
C474        C  0.05189356  0.41998432  0.00683793     0.04200
N475        N  0.09235185  0.44851288  0.01209164     0.66700
H476        H  0.05859435  0.42739719  0.95797865     0.15600
H477        H  0.96611297  0.35684642  0.04331524     0.15300
N478        N  0.93274240  0.33473848  0.98878805     0.74400
O479        O  0.11788228  0.43866539  0.01014902    -0.39100
O480        O  0.10308722  0.48439260  0.01230506    -0.39000
O481        O  0.92294489  0.29911675  0.99010238    -0.39700
O482        O  0.90644707  0.34368656  0.98939119    -0.39800
C483        C  0.99342318  0.55061291  0.87546873    -0.12100
C484        C  0.95697654  0.54861970  0.87447018     0.04900
C485        C  0.92227217  0.51144261  0.87296207    -0.07400
C486        C  0.92465895  0.47747262  0.87331753    -0.08100
C487        C  0.96110437  0.47948072  0.87502222    -0.02700
C488        C  0.99580562  0.51667173  0.87568875     0.04200
N489        N  0.03377718  0.52070656  0.87677570     0.66700
H490        H  0.02048131  0.57877964  0.87637911     0.15600
H491        H  0.89762233  0.44928452  0.87241770     0.15300
N492        N  0.88434450  0.50744543  0.87082837     0.74400
O493        O  0.05241530  0.52637741  0.85210713    -0.39100
O494        O  0.05154860  0.52638633  0.90228642    -0.39000
O495        O  0.86722210  0.50102331  0.84496385    -0.39700
O496        O  0.86483785  0.50170093  0.89501916    -0.39800
C497        C  0.98946171  0.68700034  0.02172780    -0.12100
C498        C  0.02883752  0.69879386  0.02800140     0.04900
C499        C  0.05382124  0.70395867  0.00324595    -0.07400
C500        C  0.03873818  0.69586938  0.97318801    -0.08100
C501        C  0.99907861  0.68288965  0.96706005    -0.02700
C502        C  0.97445833  0.67912635  0.99163914     0.04200
N503        N  0.93437004  0.66809174  0.98646974     0.66700
H504        H  0.96992454  0.68332038  0.04032321     0.15600
H505        H  0.05817825  0.69934754  0.95457242     0.15300
N506        N  0.09464434  0.71775590  0.00806506     0.74400
O507        O  0.90738808  0.63359954  0.99279142    -0.39100
O508        O  0.92587742  0.69437081  0.98187723    -0.39000
O509        O  0.10730522  0.69467575  0.00467497    -0.39700
O510        O  0.11872831  0.75410429  0.00988578    -0.39800
C511        C  0.02777892  0.53360607  0.13553592    -0.12100
C512        C  0.06051156  0.53293478  0.12447024     0.04900
C513        C  0.09324415  0.56812593  0.11380130    -0.07400
C514        C  0.09305414  0.60306171  0.11491641    -0.08100
C515        C  0.06047206  0.60393860  0.12597332    -0.02700
C516        C  0.02746474  0.56870920  0.13635495     0.04200
N517        N  0.99385815  0.56811379  0.14845037     0.66700
H518        H  0.00245371  0.50685589  0.14389652     0.15600
H519        H  0.11836432  0.62958602  0.10622245     0.15300
N520        N  0.12621674  0.56871242  0.10034047     0.74400
O521        O  0.96377062  0.55702595  0.13160941    -0.39100
O522        O  0.99129023  0.57062036  0.17714389    -0.39000
O523        O  0.12599956  0.56302591  0.07182245    -0.39700
O524        O  0.15781020  0.58161979  0.11556986    -0.39800
C525        C  0.20826219  0.88653328  0.09834088    -0.12100
C526        C  0.24126537  0.89125529  0.11476988     0.04900
C527        C  0.23786785  0.85919939  0.13206755    -0.07400
C528        C  0.20211406  0.82351370  0.13245578    -0.08100
C529        C  0.16910815  0.81888045  0.11611243    -0.02700
C530        C  0.17244274  0.85097290  0.09894840     0.04200
N531        N  0.13995490  0.84803241  0.08175689     0.66700
H532        H  0.21009749  0.91067044  0.08490489     0.15600
H533        H  0.20018554  0.79933917  0.14590017     0.15300
N534        N  0.27009646  0.86236142  0.14978371     0.74400
O535        O  0.11869659  0.85941119  0.09360804    -0.39100
O536        O  0.13732737  0.84156543  0.05321895    -0.39000
O537        O  0.27150346  0.86786730  0.17841939    -0.39700
O538        O  0.29211207  0.85169378  0.13826600    -0.39800
C539        C  0.34234980  0.01107781  0.99739607    -0.12100
C540        C  0.35783413  0.03945721  0.02063865     0.04900
C541        C  0.38026642  0.07938874  0.01208919    -0.07400
C542        C  0.38775672  0.08996524  0.98096408    -0.08100
C543        C  0.37299638  0.06152338  0.95779174    -0.02700
C544        C  0.34956693  0.02169561  0.96625593     0.04200
N545        N  0.33375593  0.99153298  0.94369739     0.66700
H546        H  0.32490420  0.98022733  0.00338201     0.15600
H547        H  0.40543484  0.12079780  0.97496908     0.15300
N548        N  0.39650293  0.10960271  0.03460256     0.74400
O549        O  0.35259673  0.97508130  0.93667253    -0.39100
O550        O  0.29845846  0.97683823  0.93498015    -0.39000
O551        O  0.43242235  0.12551184  0.04181718    -0.39700
O552        O  0.37752058  0.12572380  0.04213530    -0.39800
C553        C  0.44679240  0.96631897  0.12870627    -0.12100
C554        C  0.44761901  0.99920312  0.11543520     0.04900
C555        C  0.48332368  0.02998692  0.10358965    -0.07400
C556        C  0.51725797  0.02741758  0.10540713    -0.08100
C557        C  0.51634382  0.99433484  0.11845620    -0.02700
C558        C  0.48062363  0.96365972  0.13040842     0.04200
N559        N  0.47819743  0.92987340  0.14484080     0.66700
H560        H  0.41971661  0.94252231  0.13814131     0.15600
H561        H  0.54421283  0.05100464  0.09564782     0.15300
N562        N  0.48524490  0.06299302  0.08811448     0.74400
O563        O  0.48641449  0.93069757  0.17313124    -0.39100
O564        O  0.46099261  0.89750407  0.13107265    -0.39000
O565        O  0.50291213  0.09609161  0.10077406    -0.39700
O566        O  0.47632697  0.06070493  0.05986992    -0.39800
C567        C  0.63014850  0.00136212  0.00085716    -0.12100
C568        C  0.64686748  0.02890819  0.02461412     0.04900
C569        C  0.67125970  0.06888903  0.01674425    -0.07400
C570        C  0.67741164  0.08048056  0.98569656    -0.08100
C571        C  0.65999178  0.05296469  0.96197200    -0.02700
C572        C  0.63657560  0.01291311  0.96985513     0.04200
N573        N  0.61792490  0.98360895  0.94679178     0.66700
H574        H  0.61150098  0.97047195  0.00628599     0.15600
H575        H  0.69577264  0.11138060  0.98016832     0.15300
N576        N  0.68938807  0.09825847  0.03982774     0.74400
O577        O  0.63444086  0.96553738  0.93792132    -0.39100
O578        O  0.58212401  0.97028162  0.94033153    -0.39000
O579        O  0.72539662  0.11260910  0.04609034    -0.39700
O580        O  0.67188684  0.11515161  0.04917104    -0.39800
C581        C  0.53862321  0.06214368  0.86950436    -0.12100
C582        C  0.57407132  0.09692576  0.86308633     0.04900
C583        C  0.57316010  0.13124624  0.85577989    -0.07400
C584        C  0.53731630  0.13020925  0.85540891    -0.08100
C585        C  0.50198277  0.09562829  0.86257304    -0.02700
C586        C  0.50288704  0.06126857  0.86963991     0.04200
N587        N  0.46824997  0.02571899  0.87856316     0.66700
H588        H  0.53866113  0.03555877  0.87549651     0.15600
H589        H  0.53733153  0.15693019  0.84987377     0.15300
N590        N  0.60825361  0.16753258  0.84904533     0.74400
O591        O  0.45216549  0.99763182  0.85994557    -0.39100
O592        O  0.45869644  0.01970174  0.90657353    -0.39000
O593        O  0.61861017  0.17694261  0.82140789    -0.39700
O594        O  0.62406465  0.19312671  0.86970152    -0.39800
C595        C  0.81419838  0.20150226  0.88739541    -0.12100
C596        C  0.78281979  0.19990752  0.87056840     0.04900
C597        C  0.78879876  0.23385783  0.85470048    -0.07400
C598        C  0.82546069  0.26845120  0.85629975    -0.08100
C599        C  0.85663885  0.27010674  0.87348246    -0.02700
C600        C  0.85073670  0.23603402  0.88909009     0.04200
N601        N  0.88091864  0.23615990  0.90772416     0.66700
H602        H  0.81029949  0.17588136  0.89986646     0.15600
H603        H  0.82942543  0.29422884  0.84404534     0.15300
N604        N  0.75800079  0.23404920  0.83720629     0.74400
O605        O  0.88531028  0.24732593  0.93527750    -0.39100
O606        O  0.89721469  0.21784377  0.89892628    -0.39000
O607        O  0.74059958  0.25031864  0.84801711    -0.39700
O608        O  0.75396226  0.22550177  0.80901648    -0.39800
C609        C  0.65253232  0.88507232  0.10734006    -0.12100
C610        C  0.61637198  0.88289477  0.11140342     0.04900
C611        C  0.58182610  0.84559804  0.11297051    -0.07400
C612        C  0.58407760  0.81168314  0.11042051    -0.08100
C613        C  0.62026580  0.81389974  0.10629977    -0.02700
C614        C  0.65480231  0.85124631  0.10474079     0.04200
N615        N  0.69252793  0.85558263  0.10048168     0.66700
H616        H  0.67945377  0.91332203  0.10597174     0.15600
H617        H  0.55720597  0.78339568  0.11178655     0.15300
N618        N  0.54418620  0.84146202  0.11717163     0.74400
O619        O  0.70642492  0.86110801  0.07370900    -0.39100
O620        O  0.71478382  0.86172004  0.12349430    -0.39000
O621        O  0.52105141  0.83317574  0.09444972    -0.39700
O622        O  0.53144809  0.83883392  0.14406773    -0.39800
C623        C  0.23600623  0.46053929  0.12410142    -0.12100
C624        C  0.23552614  0.42817268  0.11125012     0.04900
C625        C  0.19900040  0.39508373  0.10302355    -0.07400
C626        C  0.16417863  0.39521881  0.10751366    -0.08100
C627        C  0.16474857  0.42775386  0.12017864    -0.02700
C628        C  0.20122184  0.46058642  0.12874300     0.04200
N629        N  0.20364515  0.49423074  0.14236111     0.66700
H630        H  0.26360454  0.48604160  0.13091855     0.15600
H631        H  0.13654621  0.36974703  0.10070976     0.15300
N632        N  0.19652340  0.36099405  0.09023152     0.74400
O633        O  0.19997129  0.49489744  0.17111275    -0.39100
O634        O  0.21638321  0.52545794  0.12676218    -0.39000
O635        O  0.18846680  0.33197862  0.10750195    -0.39700
O636        O  0.19441571  0.35691018  0.06138399    -0.39800
C637        C  0.49052786  0.59920195  0.12914152    -0.12100
C638        C  0.52055069  0.60288582  0.11008803     0.04900
C639        C  0.51446689  0.56975581  0.09374801    -0.07400
C640        C  0.47873582  0.53418093  0.09642586    -0.08100
C641        C  0.44835830  0.53088669  0.11478397    -0.02700
C642        C  0.45478172  0.56364011  0.13172433     0.04200
N643        N  0.42594219  0.56088380  0.15256521     0.66700
H644        H  0.49490887  0.62401056  0.14238133     0.15600
H645        H  0.47410597  0.50945847  0.08292935     0.15300
N646        N  0.54311522  0.57228914  0.07278882     0.74400
O647        O  0.42523933  0.54874025  0.17974621    -0.39100
O648        O  0.40707670  0.57781115  0.14598930    -0.39000
O649        O  0.56284879  0.55639287  0.07979542    -0.39700
O650        O  0.54299893  0.58322090  0.04532943    -0.39800
C651        C  0.38829355  0.25111685  0.89156350    -0.12100
C652        C  0.41082940  0.28045658  0.86989649     0.04900
C653        C  0.43546083  0.27504193  0.85000146    -0.07400
C654        C  0.43505470  0.23954367  0.85085575    -0.08100
C655        C  0.41089105  0.20950690  0.87158827    -0.02700
C656        C  0.38852877  0.21619408  0.89287617     0.04200
N657        N  0.36659021  0.18825524  0.91652568     0.66700
H658        H  0.37028377  0.25523623  0.90780398     0.15600
H659        H  0.45293316  0.23512570  0.83469636     0.15300
N660        N  0.46018408  0.30466195  0.82831490     0.74400
O661        O  0.38357668  0.18844251  0.94144705    -0.39100
O662        O  0.32954388  0.16896211  0.91494429    -0.39000
O663        O  0.49578392  0.32806121  0.83511196    -0.39700
O664        O  0.44856165  0.30295839  0.80083142    -0.39800
C665        C  0.37773566  0.38774123  0.01257151    -0.12100
C666        C  0.35657487  0.40670656  0.01717596     0.04900
C667        C  0.34328317  0.41875888  0.99115799    -0.07400
C668        C  0.35104878  0.41142288  0.96144331    -0.08100
C669        C  0.37273332  0.39298225  0.95687366    -0.02700
C670        C  0.38629689  0.38123722  0.98291248     0.04200
N671        N  0.40881489  0.36263914  0.97980530     0.66700
H672        H  0.38848504  0.37849984  0.03215634     0.15600
H673        H  0.34057983  0.42088316  0.94181458     0.15300
N674        N  0.32194534  0.43855432  0.99436743     0.74400
O675        O  0.44585279  0.38327061  0.97988196    -0.39100
O676        O  0.39241868  0.32604236  0.98370281    -0.39000
O677        O  0.33966055  0.47536570  0.99146346    -0.39700
O678        O  0.28486464  0.41909456  0.99409738    -0.39800
C679        C  0.81712890  0.68810430  0.87956296    -0.12100
C680        C  0.78401032  0.65654214  0.86577631     0.04900
C681        C  0.78734100  0.62580699  0.85328268    -0.07400
C682        C  0.82282726  0.62639437  0.85593475    -0.08100
C683        C  0.85561598  0.65733134  0.87057604    -0.02700
C684        C  0.85274490  0.68885205  0.88200078     0.04200
N685        N  0.88542274  0.72168491  0.89642608     0.66700
H686        H  0.81531148  0.71219030  0.88898923     0.15600
H687        H  0.82460794  0.60233634  0.84640533     0.15300
N688        N  0.75536448  0.59414587  0.83723489     0.74400
O689        O  0.90593481  0.75274868  0.88102139    -0.39100
O690        O  0.88869690  0.72240661  0.92539974    -0.39000
O691        O  0.75400977  0.59534587  0.80820079    -0.39700
O692        O  0.73404768  0.56205291  0.85117527    -0.39800
C693        C  0.64866239  0.70520513  0.95809026    -0.12100
C694        C  0.66475994  0.68128512  0.95402341     0.04900
C695        C  0.67361845  0.66562585  0.98033131    -0.07400
C696        C  0.66709808  0.67474697  0.00976482    -0.08100
C697        C  0.65059914  0.69828435  0.01383665    -0.02700
C698        C  0.64103980  0.71335991  0.98753723     0.04200
N699        N  0.62336145  0.73676791  0.99014879     0.66700
H700        H  0.64121188  0.71717909  0.93825348     0.15600
H701        H  0.67394974  0.66223979  0.02958275     0.15300
N702        N  0.68839363  0.63968296  0.97774277     0.74400
O703        O  0.64486412  0.77361903  0.99008460    -0.39100
O704        O  0.58684660  0.72131511  0.98560022    -0.39000
O705        O  0.72436329  0.65232378  0.98287986    -0.39700
O706        O  0.66455262  0.60319269  0.97710392    -0.39800
C707        C  0.57091361  0.52029707  0.84814292    -0.12100
C708        C  0.57136839  0.55471092  0.85558914     0.04900
C709        C  0.53559574  0.55305270  0.86124320    -0.07400
C710        C  0.50052485  0.51688017  0.86114576    -0.08100
C711        C  0.50036849  0.48215034  0.85534544    -0.02700
C712        C  0.53589027  0.48424855  0.84772019     0.04200
N713        N  0.53714469  0.45015775  0.83977440     0.66700
H714        H  0.59803994  0.52120764  0.84295225     0.15600
H715        H  0.47348062  0.51593242  0.86669066     0.15300
N716        N  0.53446275  0.58734201  0.86869803     0.74400
O717        O  0.53488707  0.44101286  0.81182407    -0.39100
O718        O  0.54801801  0.43400690  0.85966888    -0.39000
O719        O  0.52306382  0.60283695  0.84863213    -0.39700
O720        O  0.53743826  0.59739596  0.89646902    -0.39800
C721        C  0.18569733  0.90088061  0.74483325    -0.12100
C722        C  0.18410471  0.93539472  0.74398740     0.04900
C723        C  0.14712628  0.93258134  0.74489456    -0.07400
C724        C  0.11287265  0.89587459  0.74582776    -0.08100
C725        C  0.11421076  0.86124386  0.74625388    -0.02700
C726        C  0.15118887  0.86395146  0.74590952     0.04200
N727        N  0.15436028  0.82971473  0.74661775     0.66700
H728        H  0.21383456  0.90249876  0.74427213     0.15600
H729        H  0.08493180  0.89466534  0.74650211     0.15300
N730        N  0.14370242  0.96666945  0.74599428     0.74400
O731        O  0.15550527  0.81461407  0.72164224    -0.39100
O732        O  0.16369632  0.81944355  0.77147810    -0.39000
O733        O  0.13012821  0.97591870  0.72297490    -0.39700
O734        O  0.14722508  0.98294822  0.77149454    -0.39800
C735        C  0.30634181  0.17596233  0.71721433    -0.12100
C736        C  0.27754687  0.14459325  0.73469604     0.04900
C737        C  0.24907373  0.14930988  0.75000726    -0.07400
C738        C  0.25095965  0.18550520  0.74852293    -0.08100
C739        C  0.28084126  0.21722387  0.73204787    -0.02700
C740        C  0.30817687  0.21194402  0.71573097     0.04200
N741        N  0.33734162  0.24245172  0.69680079     0.66700
H742        H  0.32804178  0.17283330  0.70476909     0.15600
H743        H  0.22948470  0.18905446  0.76090872     0.15300
N744        N  0.21810551  0.11784937  0.76705057     0.74400
O745        O  0.37242544  0.26187095  0.70636114    -0.39100
O746        O  0.32985417  0.24426813  0.66865945    -0.39000
O747        O  0.21996606  0.11772031  0.79608971    -0.39700
O748        O  0.18596091  0.09498662  0.75367175    -0.39800
C749        C  0.15452624  0.36838479  0.74084450    -0.12100
C750        C  0.11980201  0.33286991  0.74751170     0.04900
C751        C  0.12173945  0.29866217  0.75219713    -0.07400
C752        C  0.15738949  0.30016280  0.74926780    -0.08100
C753        C  0.19206027  0.33528856  0.74208320    -0.02700
C754        C  0.19058549  0.36989392  0.73813643     0.04200
N755        N  0.22502705  0.40653283  0.73099358     0.66700
H756        H  0.15362726  0.39497785  0.73723142     0.15600
H757        H  0.15776702  0.27330719  0.75301627     0.15300
N758        N  0.08797656  0.26212830  0.76075196     0.74400
O759        O  0.23332416  0.41695702  0.70320010    -0.39100
O760        O  0.24214012  0.43144634  0.75195677    -0.39000
O761        O  0.07146628  0.23523345  0.74115097    -0.39700
O762        O  0.07963259  0.25423055  0.78886941    -0.39800
C763        C  0.89227507  0.77291157  0.76840615    -0.12100
C764        C  0.90978669  0.77122617  0.74113237     0.04900
C765        C  0.89196162  0.77086731  0.71257068    -0.07400
C766        C  0.85729761  0.77210242  0.71186054    -0.08100
C767        C  0.83943771  0.77316284  0.73916415    -0.02700
C768        C  0.85737416  0.77365980  0.76772185     0.04200
N769        N  0.83969871  0.77298321  0.79631428     0.66700
H770        H  0.90529647  0.77284895  0.79056276     0.15600
H771        H  0.84374581  0.77115078  0.68973323     0.15300
N772        N  0.90724815  0.76695918  0.68415911     0.74400
O773        O  0.81816155  0.74065678  0.80990159    -0.39100
O774        O  0.85163287  0.80451003  0.81064698    -0.39000
O775        O  0.89437651  0.73328378  0.67319961    -0.39700
O776        O  0.92703490  0.79678539  0.66729323    -0.39800
C777        C  0.86151001  0.15646187  0.77317435    -0.12100
C778        C  0.84386908  0.14099309  0.74450333     0.04900
C779        C  0.86325181  0.16162853  0.71740617    -0.07400
C780        C  0.89895450  0.19728612  0.71954085    -0.08100
C781        C  0.91582960  0.21332640  0.74827944    -0.02700
C782        C  0.89689354  0.19224606  0.77531394     0.04200
N783        N  0.91274718  0.20691351  0.80520785     0.66700
H784        H  0.84729247  0.14118915  0.79429869     0.15600
H785        H  0.91292666  0.21303403  0.69850016     0.15300
N786        N  0.84680236  0.14746772  0.68756219     0.74400
O787        O  0.90016601  0.22522232  0.82004783    -0.39100
O788        O  0.93348845  0.19540386  0.81885342    -0.39000
O789        O  0.82892690  0.16192194  0.67347484    -0.39700
O790        O  0.85718526  0.12714010  0.67295965    -0.39800
C791        C  0.76115468  0.93519986  0.74190963    -0.12100
C792        C  0.72531827  0.93438960  0.74112425     0.04900
C793        C  0.69004621  0.89795249  0.73799185    -0.07400
C794        C  0.69132079  0.86338702  0.73615401    -0.08100
C795        C  0.72730065  0.86435307  0.73677576    -0.02700
C796        C  0.76252606  0.90093410  0.73954307     0.04200
N797        N  0.80013241  0.90409048  0.73987064     0.66700
H798        H  0.78864109  0.96278906  0.74420226     0.15600
H799        H  0.66396452  0.83570530  0.73376386     0.15300
N800        N  0.65286224  0.89554198  0.73543040     0.74400
O801        O  0.81837494  0.91019546  0.71493245    -0.39100
O802        O  0.81813956  0.90862464  0.76513417    -0.39000
O803        O  0.64027662  0.89849794  0.70921568    -0.39700
O804        O  0.62960576  0.88269357  0.75788440    -0.39800
C805        C  0.65397272  0.05736808  0.47378645    -0.12100
C806        C  0.63642629  0.01681732  0.46982648     0.04900
C807        C  0.62775728  0.99243066  0.49616662    -0.07400
C808        C  0.63660419  0.00889485  0.52559581    -0.08100
C809        C  0.65362527  0.04944225  0.52955776    -0.02700
C810        C  0.66233445  0.07377428  0.50314745     0.04200
N811        N  0.67876645  0.11511853  0.50556387     0.66700
H812        H  0.66062105  0.07661356  0.45392800     0.15600
H813        H  0.62960207  0.98963719  0.54548041     0.15300
N814        N  0.61017473  0.95095797  0.49357431     0.74400
O815        O  0.71549675  0.13770959  0.50384124    -0.39100
O816        O  0.65656561  0.12915955  0.50307802    -0.39000
O817        O  0.63140424  0.93583982  0.49623730    -0.39700
O818        O  0.57330648  0.92928931  0.49515403    -0.39800
C819        C  0.43676848  0.94844727  0.35722040    -0.12100
C820        C  0.43760421  0.98271089  0.36602519     0.04900
C821        C  0.47359651  0.01512335  0.37589341    -0.07400
C822        C  0.50743913  0.01243462  0.37737913    -0.08100
C823        C  0.50638628  0.97780495  0.36946679    -0.02700
C824        C  0.47062250  0.94570542  0.35881848     0.04200
N825        N  0.46811439  0.91029954  0.34914248     0.66700
H826        H  0.40954735  0.92337334  0.34923905     0.15600
H827        H  0.53454779  0.03743156  0.38561425     0.15300
N828        N  0.47610721  0.05042905  0.38582000     0.74400
O829        O  0.45774909  0.88238360  0.36816193    -0.39100
O830        O  0.46783385  0.90395786  0.32074396    -0.39000
O831        O  0.47043158  0.05401198  0.41376689    -0.39700
O832        O  0.49143274  0.08029023  0.36842266    -0.39800
C833        C  0.37346510  0.06103443  0.46445711    -0.12100
C834        C  0.34886042  0.02093962  0.45879049     0.04900
C835        C  0.33259550  0.99480774  0.48408364    -0.07400
C836        C  0.34093168  0.00911625  0.51423489    -0.08100
C837        C  0.36566063  0.04929062  0.51996115    -0.02700
C838        C  0.38234305  0.07531009  0.49455887     0.04200
N839        N  0.40903097  0.11627031  0.49876501     0.66700
H840        H  0.38679337  0.08147747  0.44539694     0.15600
H841        H  0.32788566  0.98857165  0.53326375     0.15300
N842        N  0.30710800  0.95368601  0.47958269     0.74400
O843        O  0.44547046  0.12907044  0.50036517    -0.39100
O844        O  0.39711787  0.14003235  0.49469350    -0.39000
O845        O  0.32005446  0.93070923  0.48322685    -0.39700
O846        O  0.27209856  0.94049332  0.47066856    -0.39800
C847        C  0.52610610  0.12176203  0.60874622    -0.12100
C848        C  0.49222431  0.08875840  0.62020099     0.04900
C849        C  0.49494584  0.05692110  0.63215554    -0.07400
C850        C  0.53118183  0.05862460  0.63218883    -0.08100
C851        C  0.56498600  0.09159009  0.62040834    -0.02700
C852        C  0.56208311  0.12333389  0.60845539     0.04200
N853        N  0.59489822  0.15675460  0.59464939     0.66700
H854        H  0.52454866  0.14626192  0.59901094     0.15600
H855        H  0.53283238  0.03403830  0.64158705     0.15300
N856        N  0.46157218  0.02308502  0.64494239     0.74400
O857        O  0.60101541  0.15670073  0.56623252    -0.39100
O858        O  0.61321058  0.18837438  0.60934988    -0.39000
O859        O  0.44493831  0.99153004  0.63006521    -0.39700
O860        O  0.45388514  0.02256412  0.67308310    -0.39800
C861        C  0.15708240  0.83767125  0.38613683    -0.12100
C862        C  0.15351339  0.80488666  0.37127436     0.04900
C863        C  0.18659378  0.80870296  0.35613518    -0.07400
C864        C  0.22194479  0.84486618  0.35586056    -0.08100
C865        C  0.22537156  0.87768769  0.37060275    -0.02700
C866        C  0.19243447  0.87366846  0.38607072     0.04200
N867        N  0.19453966  0.90536546  0.40272656     0.66700
H868        H  0.13230681  0.83540624  0.39825526     0.15600
H869        H  0.24688338  0.84718698  0.34396509     0.15300
N870        N  0.18501815  0.77630385  0.34098981     0.74400
O871        O  0.18121171  0.92535075  0.39055607    -0.39100
O872        O  0.20128400  0.90758703  0.43134681    -0.39000
O873        O  0.17891021  0.77259450  0.31229701    -0.39700
O874        O  0.19756045  0.75657589  0.35482928    -0.39800
C875        C  0.95518525  0.66838698  0.50421050    -0.12100
C876        C  0.98392838  0.68148558  0.52767382     0.04900
C877        C  0.02388317  0.70070470  0.51943688    -0.07400
C878        C  0.03414676  0.70503994  0.48835821    -0.08100
C879        C  0.00538504  0.69084045  0.46486248    -0.02700
C880        C  0.96547739  0.67297324  0.47307731     0.04200
N881        N  0.93488960  0.65832010  0.45031354     0.66700
H882        H  0.92431313  0.65384362  0.51000756     0.15600
H883        H  0.06503030  0.71926437  0.48267477     0.15300
N884        N  0.05444720  0.71487228  0.54222958     0.74400
O885        O  0.91814053  0.62274247  0.44285046    -0.39100
O886        O  0.91896358  0.67798227  0.44318811    -0.39000
O887        O  0.06945637  0.69449085  0.54977464    -0.39700
O888        O  0.07139732  0.75031621  0.55010505    -0.39800
C889        C  0.80867787  0.20100235  0.60769939    -0.12100
C890        C  0.77568453  0.19830671  0.62168972     0.04900
C891        C  0.77965069  0.23146373  0.63656952    -0.07400
C892        C  0.81584477  0.26648640  0.63658561    -0.08100
C893        C  0.84867709  0.26937058  0.62220127    -0.02700
C894        C  0.84494910  0.23606429  0.60780161     0.04200
N895        N  0.87717024  0.23757304  0.59222991     0.66700
H896        H  0.80628128  0.17589875  0.59616851     0.15600
H897        H  0.81819363  0.29160284  0.64806729     0.15300
N898        N  0.74749152  0.23010688  0.65214681     0.74400
O899        O  0.89704862  0.22491240  0.60568369    -0.39100
O900        O  0.88049107  0.24377117  0.56352839    -0.39000
O901        O  0.74410070  0.22388397  0.68084367    -0.39700
O902        O  0.72738010  0.24243129  0.63859377    -0.39800
C903        C  0.91646602  0.47962650  0.62670441    -0.12100
C904        C  0.95298884  0.48182891  0.62591414     0.04900
C905        C  0.98756105  0.51901325  0.62411352    -0.07400
C906        C  0.98500368  0.55285132  0.62329205    -0.08100
C907        C  0.94846110  0.55059210  0.62383070    -0.02700
C908        C  0.91385723  0.51337853  0.62546860     0.04200
N909        N  0.87575424  0.50908949  0.62543357     0.66700
H910        H  0.88947062  0.45141056  0.62782160     0.15600
H911        H  0.01192324  0.58109320  0.62181834     0.15300
N912        N  0.02548189  0.52311543  0.62257006     0.74400
O913        O  0.85670746  0.50236013  0.60044669    -0.39100
O914        O  0.85827619  0.50408381  0.65061002    -0.39000
O915        O  0.04164066  0.52834342  0.59673330    -0.39700
O916        O  0.04583825  0.52989373  0.64684968    -0.39800
C917        C  0.95440863  0.37532534  0.50860294    -0.12100
C918        C  0.98305327  0.38335408  0.53150113     0.04900
C919        C  0.02146118  0.39453020  0.52250285    -0.07400
C920        C  0.03079558  0.39879819  0.49126595    -0.08100
C921        C  0.00255615  0.39203998  0.46837594    -0.02700
C922        C  0.96373264  0.37944450  0.47728333     0.04200
N923        N  0.93378490  0.37222578  0.45505537     0.66700
H924        H  0.92460848  0.36637836  0.51497505     0.15600
H925        H  0.06072855  0.40818982  0.48495762     0.15300
N926        N  0.05173420  0.40278066  0.54468309     0.74400
O927        O  0.91057503  0.33762526  0.44630088    -0.39100
O928        O  0.92526150  0.39832333  0.44954102    -0.39000
O929        O  0.06057394  0.37709002  0.55102754    -0.39700
O930        O  0.07411525  0.43753899  0.55346680    -0.39800
C931        C  0.01205165  0.52685156  0.36312111    -0.12100
C932        C  0.04490818  0.52627183  0.37517528     0.04900
C933        C  0.07738045  0.56156194  0.38596996    -0.07400
C934        C  0.07624046  0.59615768  0.38479430    -0.08100
C935        C  0.04328193  0.59667087  0.37299223    -0.02700
C936        C  0.01104972  0.56157046  0.36177708     0.04200
N937        N  0.97764982  0.56081239  0.34798509     0.66700
H938        H  0.98701162  0.50024236  0.35434108     0.15600
H939        H  0.10128974  0.62275591  0.39358970     0.15300
N940        N  0.11150755  0.56284916  0.39876657     0.74400
O941        O  0.97640721  0.56482558  0.31916361    -0.39100
O942        O  0.94675906  0.54855519  0.36344282    -0.39000
O943        O  0.14135974  0.57427660  0.38217099    -0.39700
O944        O  0.11474282  0.56081282  0.42760712    -0.39800
C945        C  0.41484026  0.26205147  0.62183253    -0.12100
C946        C  0.38329311  0.26218816  0.60663284     0.04900
C947        C  0.35316647  0.22699083  0.59362839    -0.07400
C948        C  0.35565287  0.19314300  0.59528448    -0.08100
C949        C  0.38744242  0.19309630  0.61007711    -0.02700
C950        C  0.41699152  0.22796188  0.62392231     0.04200
N951        N  0.44876075  0.22914486  0.64097450     0.66700
H952        H  0.43791702  0.28850726  0.63251088     0.15600
H953        H  0.33240719  0.16667722  0.58473884     0.15300
N954        N  0.31975339  0.22488194  0.57861902     0.74400
O955        O  0.48222908  0.24434337  0.62886318    -0.39100
O956        O  0.44555768  0.22308883  0.66969581    -0.39000
O957        O  0.31957322  0.22873170  0.54971651    -0.39700
O958        O  0.28797890  0.21121902  0.59314005    -0.39800
C959        C  0.80416771  0.68460182  0.60055317    -0.12100
C960        C  0.77118394  0.65403086  0.61551788     0.04900
C961        C  0.77528087  0.62521236  0.63183530    -0.07400
C962        C  0.81129772  0.62669365  0.63207256    -0.08100
C963        C  0.84401033  0.65683337  0.61678607    -0.02700
C964        C  0.84035603  0.68621727  0.60104472     0.04200
N965        N  0.87258109  0.71698989  0.58446786     0.66700
H966        H  0.80173935  0.70701949  0.58784698     0.15600
H967        H  0.81372402  0.60420676  0.64468357     0.15300
N968        N  0.74347962  0.59459055  0.64882540     0.74400
O969        O  0.88143232  0.71046886  0.55836529    -0.39100
O970        O  0.89315445  0.75032298  0.59640975    -0.39000
O971        O  0.72746982  0.55970869  0.63967262    -0.39700
O972        O  0.73668688  0.60123410  0.67563225    -0.39800
C973        C  0.55917364  0.51190980  0.60206185    -0.12100
C974        C  0.55894660  0.54499871  0.61255787     0.04900
C975        C  0.52268091  0.54128205  0.62025161    -0.07400
C976        C  0.48771919  0.50514974  0.61677872    -0.08100
C977        C  0.48797379  0.47220640  0.60584524    -0.02700
C978        C  0.52432268  0.47591159  0.59849678     0.04200
N979        N  0.52645183  0.44390288  0.58629981     0.66700
H980        H  0.58657670  0.51413468  0.59566758     0.15600
H981        H  0.46023292  0.50284627  0.62300661     0.15300
N982        N  0.52076418  0.57349882  0.63225583     0.74400
O983        O  0.52533662  0.43965507  0.55750248    -0.39100
O984        O  0.53748376  0.42532025  0.60350758    -0.39000
O985        O  0.50788336  0.59074847  0.61538681    -0.39700
O986        O  0.52369411  0.57896331  0.66095238    -0.39800
C987        C  0.57394747  0.83701977  0.36692231    -0.12100
C988        C  0.60889941  0.87115953  0.37546024     0.04900
C989        C  0.64319224  0.86923592  0.38064171    -0.07400
C990        C  0.64184259  0.83367311  0.37733962    -0.08100
C991        C  0.60687581  0.79951778  0.36894305    -0.00300
C992        C  0.57261356  0.80141886  0.36364240     0.04200
N993        N  0.53630155  0.76772118  0.35462619     0.66700
H994        H  0.54734052  0.83785121  0.36265204     0.15600
H995        H  0.66848520  0.83288675  0.38155559     0.15300
N996        N  0.67972658  0.90297674  0.38919437     0.74400
O997        O  0.51114981  0.74755341  0.37483448    -0.39100
O998        O  0.52636928  0.76282972  0.32654886    -0.39000
O999        O  0.69017400  0.90811435  0.41716115    -0.39700
O1000       O  0.70471519  0.92244185  0.36869120    -0.39800
C1001       C  0.65494491  0.66549363  0.46200734    -0.12100
C1002       C  0.63245601  0.68285336  0.45518176     0.04900
C1003       C  0.61820181  0.69479779  0.47980566    -0.07400
C1004       C  0.62669286  0.68933716  0.51029350    -0.08100
C1005       C  0.64869271  0.67146588  0.51712658    -0.02700
C1006       C  0.66285508  0.65941238  0.49251519     0.04200
N1007       N  0.68518770  0.64078517  0.49794495     0.66700
H1008       H  0.66610655  0.65601524  0.44354655     0.15600
H1009       H  0.61529928  0.69856907  0.52875642     0.15300
N1010       N  0.59478462  0.71226737  0.47442433     0.74400
O1011       O  0.66796501  0.60385834  0.49826485    -0.39100
O1012       O  0.72217023  0.66069443  0.49624615    -0.39000
O1013       O  0.55780250  0.69096793  0.47446395    -0.39700
O1014       O  0.61053830  0.74900252  0.47577599    -0.39800
C1015       C  0.18121915  0.45704178  0.36130851    -0.12100
C1016       C  0.14682723  0.42196685  0.36927271     0.04900
C1017       C  0.14876556  0.38768780  0.37376887    -0.07400
C1018       C  0.18468294  0.38929380  0.37116482    -0.08100
C1019       C  0.21932018  0.42451576  0.36403142    -0.02700
C1020       C  0.21723338  0.45861666  0.35858005     0.04200
N1021       N  0.25107627  0.49491896  0.34975788     0.66700
H1022       H  0.18028603  0.48356417  0.35731631     0.15600
H1023       H  0.18537064  0.36262027  0.37502613     0.15300
N1024       N  0.11446856  0.35072296  0.38043620     0.74400
O1025       O  0.26785455  0.52195290  0.36921878    -0.39100
O1026       O  0.25866077  0.50280296  0.32153736    -0.39000
O1027       O  0.09739575  0.32649942  0.35902454    -0.39700
O1028       O  0.10627551  0.33938247  0.40807004    -0.39800
C1029       C  0.31775208  0.39976821  0.47493581    -0.12100
C1030       C  0.33262449  0.38850388  0.45062447     0.04900
C1031       C  0.35348043  0.36919406  0.45753609    -0.07400
C1032       C  0.36104315  0.36375501  0.48824482    -0.08100
C1033       C  0.34750851  0.37640798  0.51259861    -0.02700
C1034       C  0.32454837  0.39349734  0.50567538     0.04200
N1035       N  0.30842542  0.40529633  0.52943045     0.66700
H1036       H  0.30102723  0.41397501  0.47011161     0.15600
H1037       H  0.37811909  0.34989963  0.49297002     0.15300
N1038       N  0.36832714  0.35600186  0.43377950     0.74400
O1039       O  0.32567241  0.44082097  0.53711045    -0.39100
O1040       O  0.27350858  0.38236678  0.53786581    -0.39000
O1041       O  0.40420991  0.37600468  0.42683790    -0.39700
O1042       O  0.34797101  0.32116440  0.42455682    -0.39800
C1043       C  0.50428353  0.55694641  0.36465908    -0.12100
C1044       C  0.50728383  0.59053816  0.35071490     0.04900
C1045       C  0.47370781  0.58789558  0.33646461    -0.07400
C1046       C  0.43757580  0.55295733  0.33827650    -0.08100
C1047       C  0.43414426  0.51990131  0.35342559    -0.02700
C1048       C  0.46814333  0.52170603  0.36602469     0.04200
N1049       N  0.46620185  0.48884700  0.38176111     0.66700
H1050       H  0.52975176  0.55837328  0.37567128     0.15600
H1051       H  0.41198189  0.55174388  0.32769544     0.15300
N1052       N  0.47577971  0.62022318  0.31974485     0.74400
O1053       O  0.47667862  0.46796593  0.36809878    -0.39100
O1054       O  0.46165342  0.48547194  0.41057011    -0.39000
O1055       O  0.48563922  0.62537408  0.29180328    -0.39700
O1056       O  0.46072420  0.63861552  0.33085993    -0.39800
C1057       C  0.74942733  0.93145191  0.26345352    -0.12100
C1058       C  0.71952733  0.93350841  0.24713312     0.04900
C1059       C  0.69269146  0.90121057  0.22921091    -0.07400
C1060       C  0.69630920  0.86818808  0.22769527    -0.08100
C1061       C  0.72600384  0.86586760  0.24396530    -0.02700
C1062       C  0.75279685  0.89797880  0.26214600     0.04200
N1063       N  0.78351670  0.89726530  0.27936043     0.66700
H1064       H  0.77028311  0.95589074  0.27739649     0.15600
H1065       H  0.67519934  0.84392261  0.21372218     0.15300
N1066       N  0.66144054  0.90123780  0.21225847     0.74400
O1067       O  0.81638691  0.90940733  0.26691534    -0.39100
O1068       O  0.78062406  0.89260745  0.30822013    -0.39000
O1069       O  0.66594990  0.91081172  0.18410347    -0.39700
O1070       O  0.62744824  0.88459093  0.22359559    -0.39800
C1071       C  0.84776578  0.14376281  0.24497400    -0.12100
C1072       C  0.81257669  0.14370413  0.24836685     0.04900
C1073       C  0.81424159  0.17982846  0.25168939    -0.07400
C1074       C  0.85076307  0.21492836  0.25143863    -0.08100
C1075       C  0.88589959  0.21469977  0.24833668    -0.02700
C1076       C  0.88403541  0.17848448  0.24506703     0.04200
N1077       N  0.91862840  0.17619871  0.24156748     0.66700
H1078       H  0.84738940  0.11648705  0.24240897     0.15600
H1079       H  0.85160915  0.24241908  0.25408892     0.15300
N1080       N  0.77939757  0.18154394  0.25536710     0.74400
O1081       O  0.93262805  0.16733603  0.26453143    -0.39100
O1082       O  0.93033360  0.17540178  0.21490387    -0.39000
O1083       O  0.76814381  0.18273087  0.28211590    -0.39700
O1084       O  0.76515399  0.19028955  0.23250571    -0.39800
C1085       C  0.13411288  0.29117138  0.21490323    -0.12100
C1086       C  0.15824877  0.29948080  0.24106653     0.04900
C1087       C  0.14562528  0.30581610  0.26942986    -0.07400
C1088       C  0.11023639  0.30542775  0.27079062    -0.08100
C1089       C  0.08677917  0.29869703  0.24437520    -0.02700
C1090       C  0.09846199  0.29038458  0.21633557     0.04200
N1091       N  0.07529007  0.28236872  0.18886767     0.66700
H1092       H  0.14324209  0.28583403  0.19304544     0.15600
H1093       H  0.10177253  0.31172876  0.29255648     0.15300
N1094       N  0.16955996  0.31541709  0.29661315     0.74400
O1095       O  0.08271262  0.30988199  0.17008483    -0.39100
O1096       O  0.05325705  0.24733347  0.18056994    -0.39000
O1097       O  0.19312074  0.35092597  0.30289405    -0.39700
O1098       O  0.16127630  0.28950716  0.31714140    -0.39800
C1099       C  0.31229965  0.21807227  0.24030900    -0.12100
C1100       C  0.27575840  0.21491474  0.23467981     0.04900
C1101       C  0.24224877  0.17735206  0.23045564    -0.07400
C1102       C  0.24596996  0.14421573  0.23163066    -0.08100
C1103       C  0.28250490  0.14732050  0.23726827    -0.02700
C1104       C  0.31591938  0.18481629  0.24177710     0.04200
N1105       N  0.35358740  0.18975194  0.24859489     0.66700
H1106       H  0.33834393  0.24655741  0.24389003     0.15600
H1107       H  0.21982765  0.11575702  0.22820308     0.15300
N1108       N  0.20409287  0.17207896  0.22526710     0.74400
O1109       O  0.37805135  0.19888562  0.22721952    -0.39100
O1110       O  0.36515528  0.19332111  0.27625122    -0.39000
O1111       O  0.19003162  0.16643801  0.19827891    -0.39700
O1112       O  0.18182952  0.16542678  0.24785885    -0.39800
C1113       C  0.11978454  0.88824610  0.26830337    -0.12100
C1114       C  0.10253016  0.87013780  0.24021435     0.04900
C1115       C  0.12178679  0.88836924  0.21245566    -0.07400
C1116       C  0.15737318  0.92407643  0.21331538    -0.08100
C1117       C  0.17476764  0.94202523  0.24141735    -0.02700
C1118       C  0.15565927  0.92366560  0.26917931     0.04200
N1119       N  0.17302674  0.93943428  0.29849574     0.66700
H1120       H  0.10579783  0.87444527  0.28989212     0.15600
H1121       H  0.17178752  0.93747877  0.19176020     0.15300
N1122       N  0.10669061  0.87033620  0.18328304     0.74400
O1123       O  0.16001019  0.95678537  0.31406404    -0.39100
O1124       O  0.19505391  0.92893272  0.31134708    -0.39000
O1125       O  0.08848249  0.88197183  0.16622175    -0.39700
O1126       O  0.11813916  0.84876142  0.17220232    -0.39800
C1127       C  0.85903290  0.78887789  0.22897376    -0.12100
C1128       C  0.82388049  0.75392951  0.23570015     0.04900
C1129       C  0.82533974  0.71973112  0.24231717    -0.07400
C1130       C  0.86153602  0.72129700  0.24244251    -0.08100
C1131       C  0.89673472  0.75650048  0.23627473    -0.02700
C1132       C  0.89510666  0.79049945  0.22919359     0.04200
N1133       N  0.92970722  0.82701978  0.22201646     0.66700
H1134       H  0.85873005  0.81547024  0.22359134     0.15600
H1135       H  0.86208337  0.69486310  0.24795199     0.15300
N1136       N  0.79061956  0.68333517  0.24946730     0.74400
O1137       O  0.93932137  0.83630239  0.19423598    -0.39100
O1138       O  0.94588046  0.85274785  0.24253925    -0.39000
O1139       O  0.77613309  0.65649582  0.22971143    -0.39700
O1140       O  0.77941484  0.67533859  0.27704452    -0.39800
loop_ 
_geom_bond_atom_site_label_1 
_geom_bond_atom_site_label_2 
_geom_bond_distance 
_geom_bond_site_symmetry_2 
_ccdc_geom_bond_type 
In1           O3   2.241       .  S
In1           O4   2.246       .  S
In1          O12   2.253   1_455  S
In1           O6   2.233   1_455  S
In1           O8   2.250       .  S
In1           O9   2.230       .  S
In1          O10   2.236       .  S
In1          O13   2.255   1_455  S
C2            O8   1.258       .  A
C2           O10   1.258       .  A
C2         C1114   1.477       .  S
O3           C11   1.259       .  A
O4           C11   1.262       .  A
C5           O12   1.262       .  A
C5            O6   1.258       .  A
C5         C1131   1.483       .  S
C7            O9   1.259       .  A
C7           O13   1.261   1_455  A
C7          C418   1.460       .  S
C11         C171   1.462       .  S
In14         O16   2.241       .  S
In14         O17   2.255       .  S
In14         O25   2.264       .  S
In14         O19   2.225       .  S
In14         O21   2.240   1_545  S
In14         O22   2.237       .  S
In14         O23   2.257       .  S
In14         O26   2.257       .  S
C15          O21   1.256       .  A
C15          O23   1.257   1_565  A
C15        C1117   1.477       .  S
O16          C24   1.259       .  A
O17          C24   1.263       .  A
C18          O25   1.263       .  A
C18          O19   1.258       .  A
C18        C1103   1.482       .  S
C20          O22   1.260       .  A
C20          O26   1.261       .  A
C20         C197   1.465       .  S
C24         C379   1.465       .  S
In27         O29   2.240       .  S
In27         O30   2.230       .  S
In27         O38   2.242       .  S
In27         O32   2.238       .  S
In27         O34   2.248       .  S
In27         O35   2.247       .  S
In27         O36   2.243       .  S
In27         O39   2.249       .  S
C28          O34   1.260       .  A
C28          O36   1.256       .  A
C28        C1086   1.474       .  S
O29          C37   1.262       .  A
O30          C37   1.261       .  A
C31          O38   1.261       .  A
C31          O32   1.258       .  A
C31        C1100   1.480       .  S
C33          O35   1.259       .  A
C33          O39   1.260       .  A
C33         C340   1.463       .  S
C37          C80   1.457       .  S
In40         O42   2.255       .  S
In40         O43   2.229   1_655  S
In40         O51   2.259       .  S
In40         O45   2.213       .  S
In40         O47   2.248   1_655  S
In40         O48   2.248       .  S
In40         O49   2.234   1_655  S
In40         O52   2.241       .  S
C41          O47   1.258       .  A
C41          O49   1.259       .  A
C41        C1089   1.477       .  S
O42          C50   1.262   1_655  A
O43          C50   1.258       .  A
C44          O51   1.263       .  A
C44          O45   1.257       .  A
C44        C1075   1.479       .  S
C46          O48   1.261       .  A
C46          O52   1.259       .  A
C46         C132   1.461   1_655  S
C50         C457   1.461       .  S
In53         O55   2.248       .  S
In53         O56   2.242       .  S
In53         O64   2.272       .  S
In53         O58   2.205       .  S
In53         O60   2.264       .  S
In53         O61   2.239       .  S
In53         O62   2.236   1_545  S
In53         O65   2.247       .  S
C54          O60   1.259   1_565  A
C54          O62   1.256       .  A
C54        C1058   1.482       .  S
O55          C63   1.258       .  A
O56          C63   1.259       .  A
C57          O64   1.263       .  A
C57          O58   1.258       .  A
C57        C1072   1.481       .  S
C59          O61   1.261       .  A
C59          O65   1.260       .  A
C59         C392   1.461       .  S
C63         C210   1.460       .  S
In66         O68   2.252       .  S
In66         O69   2.247       .  S
In66         O77   2.262       .  S
In66         O71   2.225       .  S
In66         O73   2.283       .  S
In66         O74   2.239       .  S
In66         O75   2.224       .  S
In66         O78   2.262       .  S
C67          O73   1.259       .  A
C67          O75   1.256       .  A
C67        C1061   1.483       .  S
O68          C76   1.262       .  A
O69          C76   1.262       .  A
C70          O77   1.262       .  A
C70          O71   1.260       .  A
C70        C1128   1.484       .  S
C72          O74   1.257       .  A
C72          O78   1.259       .  A
C72          C93   1.463       .  S
C76         C353   1.467       .  S
In79         O81   2.234       .  S
In79         O82   2.254       .  S
In79         O90   2.236       .  S
In79         O84   2.247       .  S
In79         O86   2.244       .  S
In79         O87   2.230       .  S
In79         O88   2.236       .  S
In79         O91   2.249       .  S
C80          O86   1.259       .  A
C80          O88   1.258       .  A
O81          C89   1.262       .  A
O82          C89   1.262       .  A
C83          O90   1.261       .  A
C83          O84   1.261       .  A
C83        C1030   1.480       .  S
C85          O87   1.260       .  A
C85          O91   1.259       .  A
C85        C1047   1.475       .  S
C89        C1019   1.484       .  S
In92         O94   2.243       .  S
In92         O95   2.224       .  S
In92        O103   2.238       .  S
In92         O97   2.253       .  S
In92         O99   2.262       .  S
In92        O100   2.239       .  S
In92        O101   2.239       .  S
In92        O104   2.227       .  S
C93          O99   1.260       .  A
C93         O101   1.257       .  A
O94         C102   1.263       .  A
O95         C102   1.260       .  A
C96         O103   1.258       .  A
C96          O97   1.264       .  A
C96        C1002   1.485       .  S
C98         O100   1.260       .  A
C98         O104   1.261       .  A
C98         C991   1.477       .  S
C102       C1044   1.477       .  S
In105       O107   2.256       .  S
In105       O108   2.228       .  S
In105       O116   2.238       .  S
In105       O110   2.252       .  S
In105       O112   2.255       .  S
In105       O113   2.243       .  S
In105       O114   2.243       .  S
In105       O117   2.242       .  S
C106        O112   1.260       .  A
C106        O114   1.259       .  A
C106        C254   1.464       .  S
O107        C115   1.263       .  A
O108        C115   1.262       .  A
C109        O116   1.258       .  A
C109        O110   1.264       .  A
C109       C1005   1.484       .  S
C111        O113   1.262       .  A
C111        O117   1.261       .  A
C111        C960   1.483       .  S
C115        C974   1.482       .  S
In118       O120   2.248       .  S
In118       O121   2.243       .  S
In118       O129   2.228       .  S
In118       O123   2.258       .  S
In118       O125   2.258       .  S
In118       O126   2.243       .  S
In118       O127   2.233       .  S
In118       O130   2.239       .  S
C119        O125   1.260       .  A
C119        O127   1.257       .  A
C119        C284   1.460       .  S
O120        C128   1.260       .  A
O121        C128   1.261       .  A
C122        O129   1.259       .  A
C122        O123   1.262       .  A
C122       C1033   1.482       .  S
C124        O126   1.263       .  A
C124        O130   1.261       .  A
C124        C977   1.483       .  S
C128        C946   1.483       .  S
In131       O133   2.236       .  S
In131       O134   2.239       .  S
In131       O142   2.219       .  S
In131       O136   2.265   1_455  S
In131       O138   2.248       .  S
In131       O139   2.250       .  S
In131       O140   2.242       .  S
In131       O143   2.236       .  S
C132        O138   1.260       .  A
C132        O140   1.258       .  A
O133        C141   1.263       .  A
O134        C141   1.262       .  A
C135        O142   1.258       .  A
C135        O136   1.262   1_455  A
C135        C921   1.479       .  S
C137        O139   1.263       .  A
C137        O143   1.260       .  A
C137       C1016   1.482       .  S
C141        C932   1.481       .  S
In144       O146   2.256       .  S
In144       O147   2.221       .  S
In144       O155   2.225       .  S
In144       O149   2.245       .  S
In144       O151   2.258       .  S
In144       O152   2.221       .  S
In144       O153   2.229       .  S
In144       O156   2.245       .  S
C145        O151   1.261       .  A
C145        O153   1.257       .  A
C145        C267   1.460       .  S
O146        C154   1.261       .  A
O147        C154   1.258       .  A
C148        O155   1.259       .  A
C148        O149   1.263       .  A
C148        C918   1.479       .  S
C150        O152   1.261       .  A
C150        O156   1.262       .  A
C150        C893   1.476       .  S
C154        C904   1.479       .  S
In157       O159   2.243       .  S
In157       O160   2.225       .  S
In157       O168   2.227       .  S
In157       O162   2.253       .  S
In157       O164   2.253       .  S
In157       O165   2.235       .  S
In157       O166   2.231       .  S
In157       O169   2.236       .  S
C158        O164   1.261       .  A
C158        O166   1.257       .  A
C158        C297   1.459       .  S
O159        C167   1.262       .  A
O160        C167   1.261       .  A
C161        O168   1.259       .  A
C161        O162   1.263       .  A
C161        C876   1.481       .  S
C163        O165   1.259       .  A
C163        O169   1.261       .  A
C163        C907   1.478       .  S
C167        C963   1.477       .  S
In170       O172   2.231       .  S
In170       O173   2.259       .  S
In170       O181   2.221       .  S
In170       O175   2.271   1_455  S
In170       O177   2.252       .  S
In170       O178   2.225       .  S
In170       O179   2.244       .  S
In170       O182   2.247       .  S
C171        O177   1.260       .  A
C171        O179   1.257       .  A
O172        C180   1.260       .  A
O173        C180   1.262       .  A
C174        O181   1.258       .  A
C174        O175   1.264   1_455  A
C174        C879   1.483       .  S
C176        O178   1.262       .  A
C176        O182   1.263       .  A
C176        C935   1.480       .  S
C180        C862   1.484       .  S
In183       O185   2.250       .  S
In183       O186   2.217       .  S
In183       O194   2.237       .  S
In183       O188   2.263       .  S
In183       O190   2.263       .  S
In183       O191   2.256       .  S
In183       O192   2.234       .  S
In183       O195   2.231       .  S
C184        O190   1.261       .  A
C184        O192   1.258       .  A
C184        C306   1.464       .  S
O185        C193   1.263       .  A
O186        C193   1.262       .  A
C187        O194   1.258       .  A
C187        O188   1.264       .  A
C187        C837   1.488       .  S
C189        O191   1.261       .  A
C189        O195   1.261       .  A
C189        C949   1.483       .  S
C193        C848   1.477       .  S
In196       O198   2.248   1_565  S
In196       O199   2.236       .  S
In196       O207   2.234       .  S
In196       O201   2.251   1_565  S
In196       O203   2.263   1_565  S
In196       O204   2.241       .  S
In196       O205   2.243       .  S
In196       O208   2.250       .  S
C197        O203   1.260       .  A
C197        O205   1.257   1_545  A
O198        C206   1.261   1_545  A
O199        C206   1.260       .  A
C200        O207   1.260   1_545  A
C200        O201   1.264       .  A
C200        C834   1.483       .  S
C202        O204   1.261       .  A
C202        O208   1.261       .  A
C202        C865   1.483       .  S
C206        C820   1.481       .  S
In209       O211   2.236       .  S
In209       O212   2.235       .  S
In209       O220   2.252       .  S
In209       O214   2.238   1_565  S
In209       O216   2.254   1_565  S
In209       O217   2.246       .  S
In209       O218   2.242       .  S
In209       O221   2.229   1_565  S
C210        O216   1.259       .  A
C210        O218   1.257   1_545  A
O211        C219   1.259       .  A
O212        C219   1.262       .  A
C213        O220   1.260   1_545  A
C213        O214   1.261       .  A
C213        C806   1.482       .  S
C215        O217   1.263       .  A
C215        O221   1.263   1_565  A
C215        C823   1.481       .  S
C219        C988   1.478       .  S
In222       O224   2.234       .  S
In222       O225   2.230       .  S
In222       O233   2.236       .  S
In222       O227   2.249       .  S
In222       O229   2.250       .  S
In222       O230   2.221       .  S
In222       O231   2.235       .  S
In222       O234   2.248       .  S
C223        O229   1.261       .  A
C223        O231   1.259       .  A
C223        C245   1.461       .  S
O224        C232   1.262       .  A
O225        C232   1.260       .  A
C226        O233   1.259       .  A
C226        O227   1.263       .  A
C226        C809   1.484       .  S
C228        O230   1.259       .  A
C228        O234   1.262       .  A
C228        C851   1.479       .  S
C232        C890   1.477       .  S
In235       O237   2.249       .  S
In235       O238   2.235       .  S
In235       O246   2.269   1_545  S
In235       O240   2.225       .  S
In235       O242   2.271       .  S
In235       O243   2.248       .  S
In235       O244   2.243       .  S
In235       O247   2.249       .  S
C236        O242   1.257       .  A
C236        O244   1.256       .  A
C236        C778   1.483       .  S
O237        C245   1.261       .  A
O238        C245   1.260       .  A
C239        O246   1.261       .  A
C239        O240   1.258   1_565  A
C239        C792   1.482       .  S
C241        O243   1.260       .  A
C241        O247   1.259       .  A
C241        C366   1.463       .  S
In248       O250   2.252       .  S
In248       O251   2.224       .  S
In248       O259   2.255       .  S
In248       O253   2.227       .  S
In248       O255   2.248       .  S
In248       O256   2.246       .  S
In248       O257   2.247       .  S
In248       O260   2.252       .  S
C249        O255   1.258       .  A
C249        O257   1.256       .  A
C249        C767   1.479       .  S
O250        C258   1.261       .  A
O251        C258   1.259       .  A
C252        O259   1.263       .  A
C252        O253   1.259       .  A
C252        C795   1.483       .  S
C254        O256   1.259       .  A
C254        O260   1.260       .  A
C258        C314   1.457       .  S
In261       O263   2.241       .  S
In261       O264   2.239       .  S
In261       O272   2.259       .  S
In261       O266   2.215       .  S
In261       O268   2.254   1_455  S
In261       O269   2.226   1_455  S
In261       O270   2.246   1_455  S
In261       O273   2.256       .  S
C262        O268   1.259       .  A
C262        O270   1.257       .  A
C262        C781   1.481       .  S
O263        C271   1.259       .  A
O264        C271   1.260       .  A
C265        O272   1.263       .  A
C265        O266   1.258       .  A
C265        C750   1.479       .  S
C267        O269   1.259       .  A
C267        O273   1.262   1_655  A
C271        C431   1.458   1_455  S
In274       O276   2.251       .  S
In274       O277   2.233       .  S
In274       O285   2.276       .  S
In274       O279   2.200       .  S
In274       O281   2.246       .  S
In274       O282   2.252       .  S
In274       O283   2.235       .  S
In274       O286   2.243       .  S
C275        O281   1.260       .  A
C275        O283   1.259       .  A
C275        C739   1.473       .  S
O276        C284   1.260       .  A
O277        C284   1.260       .  A
C278        O285   1.263       .  A
C278        O279   1.257       .  A
C278        C753   1.480       .  S
C280        O282   1.260       .  A
C280        O286   1.256       .  A
C280        C327   1.461       .  S
In287       O289   2.248       .  S
In287       O290   2.228   1_455  S
In287       O298   2.263       .  S
In287       O292   2.213       .  S
In287       O294   2.245   1_455  S
In287       O295   2.246   1_455  S
In287       O296   2.253   1_455  S
In287       O299   2.241       .  S
C288        O294   1.258       .  A
C288        O296   1.256       .  A
C288        C764   1.478       .  S
O289        C297   1.261   1_455  A
O290        C297   1.260       .  A
C291        O298   1.263       .  A
C291        O292   1.259       .  A
C291        C725   1.481       .  S
C293        O295   1.261   1_455  A
C293        O299   1.259       .  A
C293        C444   1.460   1_455  S
In300       O302   2.258       .  S
In300       O303   2.245       .  S
In300       O311   2.260   1_545  S
In300       O305   2.223       .  S
In300       O307   2.267       .  S
In300       O308   2.232       .  S
In300       O309   2.232       .  S
In300       O312   2.261       .  S
C301        O307   1.257       .  A
C301        O309   1.256       .  A
C301        C736   1.478       .  S
O302        C310   1.259       .  A
O303        C310   1.257       .  A
C304        O311   1.262       .  A
C304        O305   1.256   1_565  A
C304        C722   1.478       .  S
C306        O308   1.260       .  A
C306        O312   1.263       .  A
C310        C405   1.462       .  S
In313       O315   2.237       .  S
In313       O316   2.230       .  S
In313       O324   2.241       .  S
In313       O318   2.242       .  S
In313       O320   2.252       .  S
In313       O321   2.214       .  S
In313       O322   2.224       .  S
In313       O325   2.240       .  S
C314        O320   1.261       .  A
C314        O322   1.257       .  A
O315        C323   1.263       .  A
O316        C323   1.260       .  A
C317        O324   1.259       .  A
C317        O318   1.262       .  A
C317        C694   1.482       .  S
C319        O321   1.259       .  A
C319        O325   1.260       .  A
C319        C708   1.470       .  S
C323        C680   1.477       .  S
In326       O328   2.224       .  S
In326       O329   2.219       .  S
In326       O337   2.239       .  S
In326       O331   2.257       .  S
In326       O333   2.255       .  S
In326       O334   2.250       .  S
In326       O335   2.249       .  S
In326       O338   2.215       .  S
C327        O333   1.258       .  A
C327        O335   1.255       .  A
O328        C336   1.263       .  A
O329        C336   1.261       .  A
C330        O337   1.258       .  A
C330        O331   1.263       .  A
C330        C669   1.483       .  S
C332        O334   1.261       .  A
C332        O338   1.261       .  A
C332        C652   1.476       .  S
C336        C711   1.473       .  S
In339       O341   2.244       .  S
In339       O342   2.249       .  S
In339       O350   2.244       .  S
In339       O344   2.240       .  S
In339       O346   2.253       .  S
In339       O347   2.238       .  S
In339       O348   2.249       .  S
In339       O351   2.237       .  S
C340        O346   1.258       .  A
C340        O348   1.257       .  A
O341        C349   1.263       .  A
O342        C349   1.263       .  A
C343        O350   1.261       .  A
C343        O344   1.264       .  A
C343        C666   1.483       .  S
C345        O347   1.263       .  A
C345        O351   1.259       .  A
C345        C624   1.480       .  S
C349        C641   1.481       .  S
In352       O354   2.242       .  S
In352       O355   2.251       .  S
In352       O363   2.249       .  S
In352       O357   2.240       .  S
In352       O359   2.265       .  S
In352       O360   2.243       .  S
In352       O361   2.253       .  S
In352       O364   2.250       .  S
C353        O359   1.259       .  A
C353        O361   1.257       .  A
O354        C362   1.259       .  A
O355        C362   1.262       .  A
C356        O363   1.260       .  A
C356        O357   1.263       .  A
C356        C697   1.481       .  S
C358        O360   1.264       .  A
C358        O364   1.262       .  A
C358        C638   1.484       .  S
C362        C613   1.485       .  S
In365       O367   2.229       .  S
In365       O368   2.242       .  S
In365       O376   2.232       .  S
In365       O370   2.257       .  S
In365       O372   2.257       .  S
In365       O373   2.253       .  S
In365       O374   2.249       .  S
In365       O377   2.222       .  S
C366        O372   1.258       .  A
C366        O374   1.256       .  A
O367        C375   1.262       .  A
O368        C375   1.262       .  A
C369        O376   1.260       .  A
C369        O370   1.263       .  A
C369        C571   1.482       .  S
C371        O373   1.262       .  A
C371        O377   1.260       .  A
C371        C596   1.479       .  S
C375        C582   1.480       .  S
In378       O380   2.235       .  S
In378       O381   2.250       .  S
In378       O389   2.259   1_565  S
In378       O383   2.223       .  S
In378       O385   2.254   1_565  S
In378       O386   2.226       .  S
In378       O387   2.256   1_565  S
In378       O390   2.248   1_565  S
C379        O385   1.258       .  A
C379        O387   1.257       .  A
O380        C388   1.261       .  A
O381        C388   1.261       .  A
C382        O389   1.264       .  A
C382        O383   1.259   1_545  A
C382        C540   1.481       .  S
C384        O386   1.261   1_545  A
C384        O390   1.262       .  A
C384        C554   1.477   1_545  S
C388        C526   1.483       .  S
In391       O393   2.234   1_565  S
In391       O394   2.236       .  S
In391       O402   2.226       .  S
In391       O396   2.259   1_565  S
In391       O398   2.255   1_565  S
In391       O399   2.254       .  S
In391       O400   2.240       .  S
In391       O403   2.236       .  S
C392        O398   1.260       .  A
C392        O400   1.257   1_545  A
O393        C401   1.263   1_545  A
O394        C401   1.262       .  A
C395        O402   1.260   1_545  A
C395        O396   1.263       .  A
C395        C568   1.483       .  S
C397        O399   1.261       .  A
C397        O403   1.260       .  A
C397        C610   1.484       .  S
C401        C557   1.479       .  S
In404       O406   2.220       .  S
In404       O407   2.252       .  S
In404       O415   2.220       .  S
In404       O409   2.253       .  S
In404       O411   2.257       .  S
In404       O412   2.226       .  S
In404       O413   2.248       .  S
In404       O416   2.244       .  S
C405        O411   1.257       .  A
C405        O413   1.257       .  A
O406        C414   1.258       .  A
O407        C414   1.262       .  A
C408        O415   1.259       .  A
C408        O409   1.264       .  A
C408        C543   1.479       .  S
C410        O412   1.261       .  A
C410        O416   1.263       .  A
C410        C585   1.480       .  S
C414        C655   1.475       .  S
In417       O419   2.258       .  S
In417       O420   2.221       .  S
In417       O428   2.230       .  S
In417       O422   2.242       .  S
In417       O424   2.252       .  S
In417       O425   2.238       .  S
In417       O426   2.229       .  S
In417       O429   2.245       .  S
C418        O424   1.261       .  A
C418        O426   1.259       .  A
O419        C427   1.261       .  A
O420        C427   1.260       .  A
C421        O428   1.259       .  A
C421        O422   1.263       .  A
C421        C498   1.478       .  S
C423        O425   1.261       .  A
C423        O429   1.261       .  A
C423        C529   1.481       .  S
C427        C515   1.477       .  S
In430       O432   2.235       .  S
In430       O433   2.237       .  S
In430       O441   2.233       .  S
In430       O435   2.236   1_655  S
In430       O437   2.250       .  S
In430       O438   2.231       .  S
In430       O439   2.236       .  S
In430       O442   2.244       .  S
C431        O437   1.259       .  A
C431        O439   1.257       .  A
O432        C440   1.260       .  A
O433        C440   1.261       .  A
C434        O441   1.258       .  A
C434        O435   1.263   1_655  A
C434        C470   1.475       .  S
C436        O438   1.262       .  A
C436        O442   1.262       .  A
C436        C487   1.482       .  S
C440        C599   1.478       .  S
In443       O445   2.231       .  S
In443       O446   2.248       .  S
In443       O454   2.235       .  S
In443       O448   2.240   1_655  S
In443       O450   2.249       .  S
In443       O451   2.234       .  S
In443       O452   2.242       .  S
In443       O455   2.233       .  S
C444        O450   1.259       .  A
C444        O452   1.258       .  A
O445        C453   1.263       .  A
O446        C453   1.262       .  A
C447        O454   1.259       .  A
C447        O448   1.263   1_655  A
C447        C501   1.477       .  S
C449        O451   1.263       .  A
C449        O455   1.259       .  A
C449        C683   1.478       .  S
C453        C484   1.483       .  S
In456       O458   2.242       .  S
In456       O459   2.229       .  S
In456       O467   2.224       .  S
In456       O461   2.250       .  S
In456       O463   2.254       .  S
In456       O464   2.221       .  S
In456       O465   2.233       .  S
In456       O468   2.255       .  S
C457        O463   1.260       .  A
C457        O465   1.259       .  A
O458        C466   1.262       .  A
O459        C466   1.259       .  A
C460        O467   1.257       .  A
C460        O461   1.263       .  A
C460        C473   1.479       .  S
C462        O464   1.257       .  A
C462        O468   1.261       .  A
C462        C512   1.476       .  S
C466        C627   1.479       .  S
C469        C470   1.400   1_455  A
C469        C474   1.396   1_556  A
C469        H476   1.084       .  S
C470        C471   1.413       .  A
C471        C472   1.399   1_556  A
C471        N478   1.429       .  S
C472        C473   1.403   1_655  A
C472        H477   1.084       .  S
C473        C474   1.414       .  A
C474        N475   1.429       .  S
N475        O479   1.262       .  A
N475        O480   1.262       .  A
N478        O482   1.262       .  A
N478        O481   1.262       .  A
C483        C484   1.405       .  A
C483        C488   1.399       .  A
C483        H490   1.084   1_655  S
C484        C485   1.413       .  A
C485        C486   1.400       .  A
C485        N492   1.429       .  S
C486        C487   1.405       .  A
C486        H491   1.084       .  S
C487        C488   1.412       .  A
C488        N489   1.429   1_655  S
N489        O493   1.262       .  A
N489        O494   1.262       .  A
N492        O496   1.262       .  A
N492        O495   1.262       .  A
C497        C498   1.403   1_655  A
C497        C502   1.398   1_554  A
C497        H504   1.084       .  S
C498        C499   1.414       .  A
C499        C500   1.398   1_554  A
C499        N506   1.429       .  S
C500        C501   1.402   1_455  A
C500        H505   1.084       .  S
C501        C502   1.412       .  A
C502        N503   1.429       .  S
N503        O507   1.262       .  A
N503        O508   1.262       .  A
N506        O510   1.262       .  A
N506        O509   1.262       .  A
C511        C512   1.404       .  A
C511        C516   1.402       .  A
C511        H518   1.084       .  S
C512        C513   1.411       .  A
C513        C514   1.394       .  A
C513        N520   1.430       .  S
C514        C515   1.402       .  A
C514        H519   1.084       .  S
C515        C516   1.412       .  A
C516        N517   1.429   1_455  S
N517        O521   1.262       .  A
N517        O522   1.262       .  A
N520        O524   1.262       .  A
N520        O523   1.262       .  A
C525        C526   1.405       .  A
C525        C530   1.399       .  A
C525        H532   1.084       .  S
C526        C527   1.413       .  A
C527        C528   1.400       .  A
C527        N534   1.429       .  S
C528        C529   1.404       .  A
C528        H533   1.084       .  S
C529        C530   1.412       .  A
C530        N531   1.429       .  S
N531        O535   1.262       .  A
N531        O536   1.262       .  A
N534        O538   1.262       .  A
N534        O537   1.262       .  A
C539        C540   1.406   1_556  A
C539        C544   1.399       .  A
C539        H546   1.084   1_546  S
C540        C541   1.411       .  A
C541        C542   1.399   1_554  A
C541        N548   1.429       .  S
C542        C543   1.406       .  A
C542        H547   1.084       .  S
C543        C544   1.409       .  A
C544        N545   1.429   1_545  S
N545        O549   1.262       .  A
N545        O550   1.262       .  A
N548        O552   1.262       .  A
N548        O551   1.262       .  A
C553        C554   1.403       .  A
C553        C558   1.398       .  A
C553        H560   1.084       .  S
C554        C555   1.411   1_565  A
C555        C556   1.400       .  A
C555        N562   1.429       .  S
C556        C557   1.405   1_545  A
C556        H561   1.084       .  S
C557        C558   1.412       .  A
C558        N559   1.429       .  S
N559        O563   1.262       .  A
N559        O564   1.262       .  A
N562        O566   1.262       .  A
N562        O565   1.262       .  A
C567        C568   1.406       .  A
C567        C572   1.399   1_554  A
C567        H574   1.084   1_545  S
C568        C569   1.412       .  A
C569        C570   1.401   1_554  A
C569        N576   1.429       .  S
C570        C571   1.406       .  A
C570        H575   1.084       .  S
C571        C572   1.410       .  A
C572        N573   1.428   1_545  S
N573        O577   1.262       .  A
N573        O578   1.262       .  A
N576        O580   1.262       .  A
N576        O579   1.262       .  A
C581        C582   1.404       .  A
C581        C586   1.398       .  A
C581        H588   1.084       .  S
C582        C583   1.412       .  A
C583        C584   1.399       .  A
C583        N590   1.429       .  S
C584        C585   1.405       .  A
C584        H589   1.084       .  S
C585        C586   1.412       .  A
C586        N587   1.429       .  S
N587        O591   1.262   1_545  A
N587        O592   1.262       .  A
N590        O594   1.262       .  A
N590        O593   1.262       .  A
C595        C596   1.404       .  A
C595        C600   1.396       .  A
C595        H602   1.084       .  S
C596        C597   1.412       .  A
C597        C598   1.399       .  A
C597        N604   1.429       .  S
C598        C599   1.404       .  A
C598        H603   1.084       .  S
C599        C600   1.412       .  A
C600        N601   1.429       .  S
N601        O605   1.262       .  A
N601        O606   1.262       .  A
N604        O608   1.262       .  A
N604        O607   1.262       .  A
C609        C610   1.404       .  A
C609        C614   1.399       .  A
C609        H616   1.084       .  S
C610        C611   1.413       .  A
C611        C612   1.402       .  A
C611        N618   1.429       .  S
C612        C613   1.405       .  A
C612        H617   1.084       .  S
C613        C614   1.414       .  A
C614        N615   1.429       .  S
N615        O619   1.262       .  A
N615        O620   1.262       .  A
N618        O622   1.262       .  A
N618        O621   1.262       .  A
C623        C624   1.402       .  A
C623        C628   1.397       .  A
C623        H630   1.084       .  S
C624        C625   1.414       .  A
C625        C626   1.399       .  A
C625        N632   1.429       .  S
C626        C627   1.404       .  A
C626        H631   1.084       .  S
C627        C628   1.413       .  A
C628        N629   1.429       .  S
N629        O633   1.262       .  A
N629        O634   1.262       .  A
N632        O636   1.262       .  A
N632        O635   1.262       .  A
C637        C638   1.405       .  A
C637        C642   1.402       .  A
C637        H644   1.084       .  S
C638        C639   1.413       .  A
C639        C640   1.402       .  A
C639        N646   1.429       .  S
C640        C641   1.403       .  A
C640        H645   1.084       .  S
C641        C642   1.410       .  A
C642        N643   1.429       .  S
N643        O647   1.262       .  A
N643        O648   1.262       .  A
N646        O650   1.262       .  A
N646        O649   1.262       .  A
C651        C652   1.402       .  A
C651        C656   1.392       .  A
C651        H658   1.084       .  S
C652        C653   1.413       .  A
C653        C654   1.402       .  A
C653        N660   1.429       .  S
C654        C655   1.404       .  A
C654        H659   1.084       .  S
C655        C656   1.410       .  A
C656        N657   1.429       .  S
N657        O661   1.262       .  A
N657        O662   1.262       .  A
N660        O664   1.262       .  A
N660        O663   1.262       .  A
C665        C666   1.403       .  A
C665        C670   1.399   1_554  A
C665        H672   1.084       .  S
C666        C667   1.414   1_554  A
C667        C668   1.402       .  A
C667        N674   1.429       .  S
C668        C669   1.403       .  A
C668        H673   1.084       .  S
C669        C670   1.414       .  A
C670        N671   1.429       .  S
N671        O675   1.262       .  A
N671        O676   1.262       .  A
N674        O678   1.262       .  A
N674        O677   1.262       .  A
C679        C680   1.402       .  A
C679        C684   1.398       .  A
C679        H686   1.084       .  S
C680        C681   1.412       .  A
C681        C682   1.396       .  A
C681        N688   1.429       .  S
C682        C683   1.402       .  A
C682        H687   1.084       .  S
C683        C684   1.414       .  A
C684        N685   1.429       .  S
N685        O689   1.262       .  A
N685        O690   1.262       .  A
N688        O692   1.262       .  A
N688        O691   1.262       .  A
C693        C694   1.404       .  A
C693        C698   1.400       .  A
C693        H700   1.084       .  S
C694        C695   1.413       .  A
C695        C696   1.399   1_556  A
C695        N702   1.429       .  S
C696        C697   1.403       .  A
C696        H701   1.084       .  S
C697        C698   1.413   1_554  A
C698        N699   1.429       .  S
N699        O703   1.262       .  A
N699        O704   1.262       .  A
N702        O706   1.262       .  A
N702        O705   1.262       .  A
C707        C708   1.402       .  A
C707        C712   1.393       .  A
C707        H714   1.084       .  S
C708        C709   1.410       .  A
C709        C710   1.397       .  A
C709        N716   1.429       .  S
C710        C711   1.404       .  A
C710        H715   1.084       .  S
C711        C712   1.411       .  A
C712        N713   1.429       .  S
N713        O717   1.262       .  A
N713        O718   1.262       .  A
N716        O720   1.262       .  A
N716        O719   1.262       .  A
C721        C722   1.404       .  A
C721        C726   1.403       .  A
C721        H728   1.084       .  S
C722        C723   1.412       .  A
C723        C724   1.394       .  A
C723        N730   1.430       .  S
C724        C725   1.403       .  A
C724        H729   1.084       .  S
C725        C726   1.413       .  A
C726        N727   1.428       .  S
N727        O731   1.262       .  A
N727        O732   1.262       .  A
N730        O734   1.262       .  A
N730        O733   1.262       .  A
C735        C736   1.404       .  A
C735        C740   1.394       .  A
C735        H742   1.084       .  S
C736        C737   1.413       .  A
C737        C738   1.401       .  A
C737        N744   1.429       .  S
C738        C739   1.404       .  A
C738        H743   1.084       .  S
C739        C740   1.409       .  A
C740        N741   1.429       .  S
N741        O745   1.262       .  A
N741        O746   1.262       .  A
N744        O748   1.262       .  A
N744        O747   1.262       .  A
C749        C750   1.406       .  A
C749        C754   1.405       .  A
C749        H756   1.084       .  S
C750        C751   1.411       .  A
C751        C752   1.390       .  A
C751        N758   1.429       .  S
C752        C753   1.403       .  A
C752        H757   1.084       .  S
C753        C754   1.413       .  A
C754        N755   1.429       .  S
N755        O759   1.262       .  A
N755        O760   1.262       .  A
N758        O762   1.262       .  A
N758        O761   1.262       .  A
C763        C764   1.403       .  A
C763        C768   1.398       .  A
C763        H770   1.084       .  S
C764        C765   1.413       .  A
C765        C766   1.398       .  A
C765        N772   1.429       .  S
C766        C767   1.404       .  A
C766        H771   1.084       .  S
C767        C768   1.413       .  A
C768        N769   1.429       .  S
N769        O773   1.262       .  A
N769        O774   1.262       .  A
N772        O776   1.262       .  A
N772        O775   1.262       .  A
C777        C778   1.405       .  A
C777        C782   1.398       .  A
C777        H784   1.084       .  S
C778        C779   1.413       .  A
C779        C780   1.401       .  A
C779        N786   1.429       .  S
C780        C781   1.405       .  A
C780        H785   1.084       .  S
C781        C782   1.412       .  A
C782        N783   1.429       .  S
N783        O787   1.262       .  A
N783        O788   1.262       .  A
N786        O790   1.262       .  A
N786        O789   1.262       .  A
C791        C792   1.403       .  A
C791        C796   1.396       .  A
C791        H798   1.084       .  S
C792        C793   1.413       .  A
C793        C794   1.403       .  A
C793        N800   1.429       .  S
C794        C795   1.406       .  A
C794        H799   1.084       .  S
C795        C796   1.413       .  A
C796        N797   1.429       .  S
N797        O801   1.262       .  A
N797        O802   1.262       .  A
N800        O804   1.262       .  A
N800        O803   1.262       .  A
C805        C806   1.403       .  A
C805        C810   1.398       .  A
C805        H812   1.084       .  S
C806        C807   1.413   1_545  A
C807        C808   1.401   1_565  A
C807        N814   1.429       .  S
C808        C809   1.405       .  A
C808        H813   1.084   1_545  S
C809        C810   1.414       .  A
C810        N811   1.429       .  S
N811        O815   1.262       .  A
N811        O816   1.262       .  A
N814        O818   1.262       .  A
N814        O817   1.262       .  A
C819        C820   1.405       .  A
C819        C824   1.400       .  A
C819        H826   1.084       .  S
C820        C821   1.412   1_565  A
C821        C822   1.398       .  A
C821        N828   1.429       .  S
C822        C823   1.404   1_545  A
C822        H827   1.084       .  S
C823        C824   1.413       .  A
C824        N825   1.429       .  S
N825        O829   1.262       .  A
N825        O830   1.262       .  A
N828        O832   1.262       .  A
N828        O831   1.262       .  A
C833        C834   1.401       .  A
C833        C838   1.400       .  A
C833        H840   1.084       .  S
C834        C835   1.413   1_545  A
C835        C836   1.402   1_565  A
C835        N842   1.429       .  S
C836        C837   1.405       .  A
C836        H841   1.084   1_545  S
C837        C838   1.416       .  A
C838        N839   1.429       .  S
N839        O843   1.262       .  A
N839        O844   1.262       .  A
N842        O846   1.261       .  A
N842        O845   1.262       .  A
C847        C848   1.402       .  A
C847        C852   1.394       .  A
C847        H854   1.084       .  S
C848        C849   1.412       .  A
C849        C850   1.402       .  A
C849        N856   1.429       .  S
C850        C851   1.405       .  A
C850        H855   1.084       .  S
C851        C852   1.412       .  A
C852        N853   1.429       .  S
N853        O857   1.262       .  A
N853        O858   1.262       .  A
N856        O860   1.262       .  A
N856        O859   1.262   1_545  A
C861        C862   1.404       .  A
C861        C866   1.398       .  A
C861        H868   1.084       .  S
C862        C863   1.413       .  A
C863        C864   1.402       .  A
C863        N870   1.429       .  S
C864        C865   1.405       .  A
C864        H869   1.084       .  S
C865        C866   1.412       .  A
C866        N867   1.428       .  S
N867        O871   1.262       .  A
N867        O872   1.262       .  A
N870        O874   1.262       .  A
N870        O873   1.262       .  A
C875        C876   1.406       .  A
C875        C880   1.401       .  A
C875        H882   1.084       .  S
C876        C877   1.410   1_655  A
C877        C878   1.398       .  A
C877        N884   1.429       .  S
C878        C879   1.407       .  A
C878        H883   1.084       .  S
C879        C880   1.411   1_455  A
C880        N881   1.428       .  S
N881        O885   1.262       .  A
N881        O886   1.262       .  A
N884        O888   1.262       .  A
N884        O887   1.262       .  A
C889        C890   1.404       .  A
C889        C894   1.398       .  A
C889        H896   1.084       .  S
C890        C891   1.412       .  A
C891        C892   1.396       .  A
C891        N898   1.429       .  S
C892        C893   1.403       .  A
C892        H897   1.084       .  S
C893        C894   1.411       .  A
C894        N895   1.429       .  S
N895        O899   1.262       .  A
N895        O900   1.262       .  A
N898        O902   1.262       .  A
N898        O901   1.262       .  A
C903        C904   1.405       .  A
C903        C908   1.397       .  A
C903        H910   1.084       .  S
C904        C905   1.411       .  A
C905        C906   1.399       .  A
C905        N912   1.428   1_655  S
C906        C907   1.404       .  A
C906        H911   1.084   1_655  S
C907        C908   1.412       .  A
C908        N909   1.429       .  S
N909        O913   1.262       .  A
N909        O914   1.262       .  A
N912        O916   1.262       .  A
N912        O915   1.262       .  A
C917        C918   1.406       .  A
C917        C922   1.400       .  A
C917        H924   1.084       .  S
C918        C919   1.410   1_655  A
C919        C920   1.397       .  A
C919        N926   1.428       .  S
C920        C921   1.405       .  A
C920        H925   1.084       .  S
C921        C922   1.411   1_455  A
C922        N923   1.429       .  S
N923        O927   1.262       .  A
N923        O928   1.262       .  A
N926        O930   1.262       .  A
N926        O929   1.262       .  A
C931        C932   1.405       .  A
C931        C936   1.400       .  A
C931        H938   1.084   1_455  S
C932        C933   1.413       .  A
C933        C934   1.398       .  A
C933        N940   1.429       .  S
C934        C935   1.404       .  A
C934        H939   1.084       .  S
C935        C936   1.411       .  A
C936        N937   1.429   1_455  S
N937        O941   1.262       .  A
N937        O942   1.262       .  A
N940        O944   1.262       .  A
N940        O943   1.262       .  A
C945        C946   1.405       .  A
C945        C950   1.401       .  A
C945        H952   1.084       .  S
C946        C947   1.412       .  A
C947        C948   1.398       .  A
C947        N954   1.428       .  S
C948        C949   1.404       .  A
C948        H953   1.084       .  S
C949        C950   1.413       .  A
C950        N951   1.429       .  S
N951        O955   1.262       .  A
N951        O956   1.262       .  A
N954        O958   1.262       .  A
N954        O957   1.262       .  A
C959        C960   1.407       .  A
C959        C964   1.401       .  A
C959        H966   1.084       .  S
C960        C961   1.412       .  A
C961        C962   1.397       .  A
C961        N968   1.429       .  S
C962        C963   1.402       .  A
C962        H967   1.084       .  S
C963        C964   1.411       .  A
C964        N965   1.430       .  S
N965        O969   1.262       .  A
N965        O970   1.262       .  A
N968        O972   1.262       .  A
N968        O971   1.262       .  A
C973        C974   1.404       .  A
C973        C978   1.398       .  A
C973        H980   1.084       .  S
C974        C975   1.412       .  A
C975        C976   1.402       .  A
C975        N982   1.429       .  S
C976        C977   1.405       .  A
C976        H981   1.084       .  S
C977        C978   1.412       .  A
C978        N979   1.429       .  S
N979        O983   1.262       .  A
N979        O984   1.262       .  A
N982        O986   1.262       .  A
N982        O985   1.262       .  A
C987        C988   1.404       .  A
C987        C992   1.398       .  A
C987        H994   1.084       .  S
C988        C989   1.413       .  A
C989        C990   1.396       .  A
C989        N996   1.429       .  S
C990        C991   1.403       .  A
C990        H995   1.084       .  S
C991        C992   1.412       .  A
C992        N993   1.429       .  S
N993        O997   1.262       .  A
N993        O998   1.262       .  A
N996       O1000   1.262       .  A
N996        O999   1.262       .  A
C1001      C1002   1.403       .  A
C1001      C1006   1.401       .  A
C1001      H1008   1.084       .  S
C1002      C1003   1.415       .  A
C1003      C1004   1.400       .  A
C1003      N1010   1.429       .  S
C1004      C1005   1.403       .  A
C1004      H1009   1.084       .  S
C1005      C1006   1.415       .  A
C1006      N1007   1.429       .  S
N1007      O1011   1.262       .  A
N1007      O1012   1.262       .  A
N1010      O1014   1.262       .  A
N1010      O1013   1.262       .  A
C1015      C1016   1.404       .  A
C1015      C1020   1.403       .  A
C1015      H1022   1.084       .  S
C1016      C1017   1.412       .  A
C1017      C1018   1.398       .  A
C1017      N1024   1.429       .  S
C1018      C1019   1.403       .  A
C1018      H1023   1.084       .  S
C1019      C1020   1.414       .  A
C1020      N1021   1.429       .  S
N1021      O1025   1.262       .  A
N1021      O1026   1.262       .  A
N1024      O1028   1.262       .  A
N1024      O1027   1.262       .  A
C1029      C1030   1.404       .  A
C1029      C1034   1.400       .  A
C1029      H1036   1.084       .  S
C1030      C1031   1.411       .  A
C1031      C1032   1.398       .  A
C1031      N1038   1.429       .  S
C1032      C1033   1.405       .  A
C1032      H1037   1.084       .  S
C1033      C1034   1.412       .  A
C1034      N1035   1.428       .  S
N1035      O1039   1.262       .  A
N1035      O1040   1.262       .  A
N1038      O1042   1.262       .  A
N1038      O1041   1.262       .  A
C1043      C1044   1.404       .  A
C1043      C1048   1.400       .  A
C1043      H1050   1.084       .  S
C1044      C1045   1.411       .  A
C1045      C1046   1.395       .  A
C1045      N1052   1.429       .  S
C1046      C1047   1.401       .  A
C1046      H1051   1.084       .  S
C1047      C1048   1.412       .  A
C1048      N1049   1.429       .  S
N1049      O1053   1.262       .  A
N1049      O1054   1.262       .  A
N1052      O1056   1.262       .  A
N1052      O1055   1.262       .  A
C1057      C1058   1.406       .  A
C1057      C1062   1.405       .  A
C1057      H1064   1.084       .  S
C1058      C1059   1.412       .  A
C1059      C1060   1.394       .  A
C1059      N1066   1.429       .  S
C1060      C1061   1.403       .  A
C1060      H1065   1.084       .  S
C1061      C1062   1.414       .  A
C1062      N1063   1.429       .  S
N1063      O1067   1.262       .  A
N1063      O1068   1.262       .  A
N1066      O1070   1.262       .  A
N1066      O1069   1.262       .  A
C1071      C1072   1.403       .  A
C1071      C1076   1.392       .  A
C1071      H1078   1.084       .  S
C1072      C1073   1.413       .  A
C1073      C1074   1.404       .  A
C1073      N1080   1.428       .  S
C1074      C1075   1.405       .  A
C1074      H1079   1.084       .  S
C1075      C1076   1.412       .  A
C1076      N1077   1.430       .  S
N1077      O1081   1.262       .  A
N1077      O1082   1.262       .  A
N1080      O1084   1.262       .  A
N1080      O1083   1.262       .  A
C1085      C1086   1.402       .  A
C1085      C1090   1.399       .  A
C1085      H1092   1.084       .  S
C1086      C1087   1.412       .  A
C1087      C1088   1.396       .  A
C1087      N1094   1.430       .  S
C1088      C1089   1.403       .  A
C1088      H1093   1.084       .  S
C1089      C1090   1.413       .  A
C1090      N1091   1.429       .  S
N1091      O1095   1.262       .  A
N1091      O1096   1.262       .  A
N1094      O1098   1.262       .  A
N1094      O1097   1.262       .  A
C1099      C1100   1.405       .  A
C1099      C1104   1.400       .  A
C1099      H1106   1.084       .  S
C1100      C1101   1.413       .  A
C1101      C1102   1.398       .  A
C1101      N1108   1.430       .  S
C1102      C1103   1.405       .  A
C1102      H1107   1.084       .  S
C1103      C1104   1.411       .  A
C1104      N1105   1.428       .  S
N1105      O1109   1.262       .  A
N1105      O1110   1.262       .  A
N1108      O1112   1.262       .  A
N1108      O1111   1.262       .  A
C1113      C1114   1.404       .  A
C1113      C1118   1.398       .  A
C1113      H1120   1.084       .  S
C1114      C1115   1.412       .  A
C1115      C1116   1.398       .  A
C1115      N1122   1.429       .  S
C1116      C1117   1.404       .  A
C1116      H1121   1.084       .  S
C1117      C1118   1.412       .  A
C1118      N1119   1.429       .  S
N1119      O1123   1.262       .  A
N1119      O1124   1.262       .  A
N1122      O1126   1.262       .  A
N1122      O1125   1.262       .  A
C1127      C1128   1.404       .  A
C1127      C1132   1.397       .  A
C1127      H1134   1.084       .  S
C1128      C1129   1.413       .  A
C1129      C1130   1.403       .  A
C1129      N1136   1.429       .  S
C1130      C1131   1.405       .  A
C1130      H1135   1.084       .  S
C1131      C1132   1.413       .  A
C1132      N1133   1.429       .  S
N1133      O1137   1.262       .  A
N1133      O1138   1.262       .  A
N1136      O1140   1.262       .  A
N1136      O1139   1.262       .  A
