geometry optimzed in LAMMPS
_audit_creation_date              2020-11-30 
_audit_creation_method            'lammps2cif' 
_symmetry_space_group_name_H-M    'P1' 
_symmetry_Int_Tables_number       1 
_symmetry_cell_setting            triclinic 
loop_ 
_symmetry_equiv_pos_as_xyz 
  x,y,z 
_cell_length_a                    44.66207218 
_cell_length_b                    44.677556007957776 
_cell_length_c                    34.38357705594132 
_cell_angle_alpha                 91.37046280119878 
_cell_angle_beta                  88.36617371750894 
_cell_angle_gamma                 90.91529277915394 
loop_ 
_atom_site_label 
_atom_site_type_symbol 
_atom_site_fract_x 
_atom_site_fract_y 
_atom_site_fract_z 
_atom_site_charge 
N1          N  0.00832891  0.22186279  0.04390006    -0.34700
N2          N  0.00659881  0.28460794  0.04452335    -0.55200
N3          N  0.50640045  0.28262488  0.45652435    -0.34700
N4          N  0.50958280  0.21984574  0.45600480    -0.55200
C5          C  0.01618513  0.22923814  0.08077233     0.28900
C6          C  0.52221354  0.19604200  0.03434639     0.28900
C7          C  0.01720232  0.31054015  0.46470012     0.28900
C8          C  0.51358678  0.27623640  0.41844600     0.28900
C9          C  0.00583148  0.28171092  0.08395395     0.37500
C10         C  0.00946323  0.31419710  0.03731690     0.37500
C11         C  0.51515538  0.19092396  0.46315917     0.37500
C12         C  0.51030361  0.22239048  0.41672775     0.37500
C13         C  0.03711289  0.20924724  0.09320403    -0.20000
C14         C  0.53991087  0.18752677  0.06449387    -0.20000
C15         C  0.03218707  0.32155755  0.43203306    -0.20000
C16         C  0.53081171  0.29953782  0.40337198    -0.20000
C17         C  0.01069831  0.30965933  0.10130257    -0.21000
C18         C  0.01180395  0.33016565  0.07215533    -0.21000
C19         C  0.52107700  0.17527039  0.42869501    -0.21000
C20         C  0.51948023  0.19550783  0.39956169    -0.21000
C21         C  0.00450253  0.25354193  0.10322113    -0.16400
C22         C  0.51789156  0.17880625  0.50022376    -0.16400
C23         C  0.50527350  0.24961433  0.39729621    -0.16400
C24         C  0.01303019  0.32710194  0.00007578    -0.16400
H25         H  0.04824161  0.20971629  0.12077340     0.16600
H26         H  0.55370021  0.16785724  0.06531507     0.16600
H27         H  0.04343685  0.34308257  0.42940033     0.16600
H28         H  0.54083025  0.30076560  0.37440477     0.16600
H29         H  0.01520434  0.31491652  0.13141980     0.14800
H30         H  0.01607837  0.35394617  0.07607651     0.14800
H31         H  0.52812637  0.15226775  0.42518922     0.14800
H32         H  0.52606207  0.19100592  0.36953773     0.14800
H33         H  0.99169918  0.23176980  0.02803736     0.28100
H34         H  0.49212695  0.27016313  0.47465803     0.28100
N35         N  0.49769591  0.21812582  0.29361435    -0.34700
N36         N  0.48983777  0.28060268  0.29579513    -0.55200
N37         N  0.49109919  0.28065474  0.20785911    -0.34700
N38         N  0.49631525  0.21800620  0.20545920    -0.55200
C39         C  0.48988567  0.22376776  0.33166389     0.28900
C40         C  0.48709274  0.19032987  0.28435979     0.28900
C41         C  0.47642243  0.30598172  0.21801450     0.28900
C42         C  0.48463878  0.27417697  0.17019841     0.28900
C43         C  0.49030082  0.27748199  0.33498552     0.37500
C44         C  0.48258373  0.30931973  0.28978282     0.37500
C45         C  0.49381311  0.18821973  0.21170913     0.37500
C46         C  0.49562353  0.22165979  0.16623298     0.37500
C47         C  0.47227994  0.20028289  0.34546198    -0.20000
C48         C  0.47158272  0.17871973  0.31623680    -0.20000
C49         C  0.45967575  0.31511225  0.18726084    -0.20000
C50         C  0.46390104  0.29429393  0.15757161    -0.20000
C51         C  0.48030854  0.30360959  0.35334877    -0.21000
C52         C  0.47671399  0.32407839  0.32493900    -0.21000
C53         C  0.49015303  0.17294047  0.17662817    -0.21000
C54         C  0.48998865  0.19405344  0.14832314    -0.21000
C55         C  0.49713311  0.25031393  0.35349343    -0.16400
C56         C  0.49145287  0.17449929  0.24849701    -0.16400
C57         C  0.49669651  0.25008882  0.14755013    -0.16400
C58         C  0.47914935  0.32226210  0.25326560    -0.16400
H59         H  0.46140291  0.19871804  0.37389116     0.16600
H60         H  0.46015644  0.15721744  0.31783109     0.16600
H61         H  0.44550793  0.33452030  0.18664483     0.16600
H62         H  0.45346995  0.29432952  0.12954198     0.16600
H63         H  0.47464973  0.30743945  0.38380195     0.14800
H64         H  0.46878539  0.34669864  0.32949537     0.14800
H65         H  0.48572958  0.14923431  0.17216672     0.14800
H66         H  0.48438550  0.18941896  0.11839343     0.14800
H67         H  0.51188424  0.23122358  0.27610228     0.28100
H68         H  0.50728552  0.27054755  0.22421310     0.28100
O69         O  0.48858139  0.02178925  0.41762238    -0.76600
C70         C  0.41965255  0.00684532  0.00012612     0.84500
O71         O  0.02132839  0.07442376  0.03375714    -0.77700
O72         O  0.48195025  0.48147089  0.08708501    -0.79200
O73         O  0.02961522  0.43467913  0.48116151    -0.79000
O74         O  0.02422651  0.48698127  0.41424878    -0.77600
Zn75       Zn  0.48070140  0.03158496  0.47296518     1.55700
O76         O  0.48634335  0.43105723  0.01499577    -0.79000
Cd77       Cd  0.03363030  0.48040635  0.47079903     1.59700
Cd78       Cd  0.02814032  0.02951529  0.03852971     1.59600
O79         O  0.07762165  0.49490580  0.47806259    -0.79000
O80         O  0.50411694  0.00443237  0.00227795    -1.89500
Cd81       Cd  0.47588083  0.47574119  0.02855368     1.59900
O82         O  0.07354967  0.02652557  0.02879529    -0.78900
O83         O  0.43105863  0.48503865  0.01744148    -0.77600
C84         C  0.00863390  0.08832483  0.00724883     0.85000
C85         C  0.50590342  0.00417184  0.39862949     0.84600
O86         O  0.43589222  0.02669081  0.48332844    -0.76500
C87         C  0.00908595  0.41909226  0.99780431     0.85400
O88         O  0.49303321  0.07488805  0.48160874    -0.76600
C89         C  0.08915551  0.01302788  0.00267783     0.85600
C90         C  0.99932737  0.99810563  0.10724586     0.85900
O91         O  0.01782917  0.01698943  0.09305521    -0.79100
O92         O  0.48085524  0.01362723  0.16761706    -0.76600
C93         C  0.41388281  0.99303870  0.25608502     0.84500
O94         O  0.01757777  0.07075382  0.26775687    -0.77700
O95         O  0.48436281  0.48479354  0.34333028    -0.79200
O96         O  0.00706323  0.42440172  0.22826253    -0.79000
O97         O  0.01509502  0.47741618  0.16411718    -0.77600
Zn98       Zn  0.47096455  0.02152951  0.22290831     1.55700
O99         O  0.47586265  0.42850836  0.27978413    -0.79000
Cd100      Cd  0.02170978  0.46822277  0.22071232     1.59700
Cd101      Cd  0.02666011  0.02579241  0.27842862     1.59600
O102        O  0.06742948  0.47196538  0.23094462    -0.79000
O103        O  0.49781713  0.99784008  0.25226142    -1.89500
Cd104      Cd  0.47244078  0.47394558  0.28868446     1.59900
O105        O  0.07125038  0.01510350  0.26470004    -0.78900
O106        O  0.42748043  0.48021871  0.28268417    -0.77600
C107        C  0.99580373  0.08239797  0.25053511     0.85000
C108        C  0.49807065  0.99594316  0.14857270     0.84600
O109        O  0.42756448  0.00909439  0.23100513    -0.76500
C110        C  0.98916184  0.41289038  0.25337438     0.85400
O111        O  0.47600593  0.06634894  0.23354821    -0.76600
C112        C  0.08309098  0.99234988  0.24758045     0.85600
C113        C  0.00370709  0.50280436  0.35730169     0.85900
O114        O  0.02088982  0.01960086  0.33692935    -0.79100
N115        N  0.28399768  0.00465904  0.04228887    -0.34700
N116        N  0.22163161  0.01288611  0.04459729    -0.55200
N117        N  0.22153772  0.01079394  0.45661581    -0.34700
N118        N  0.28419345  0.00541966  0.45406491    -0.55200
C119        C  0.27845054  0.01221008  0.08041515     0.28900
C120        C  0.31187841  0.01506799  0.03292720     0.28900
C121        C  0.19610331  0.02543918  0.46649243     0.28900
C122        C  0.22795049  0.01668221  0.41867292     0.28900
C123        C  0.22474797  0.01256631  0.08379274     0.37500
C124        C  0.19297785  0.02038445  0.03862624     0.37500
C125        C  0.31396617  0.00825240  0.46021151     0.37500
C126        C  0.28058754  0.00583619  0.41481858     0.37500
C127        C  0.30214429  0.02937599  0.09425731    -0.17600
C128        C  0.32367545  0.03015186  0.06487521    -0.20000
C129        C  0.18680247  0.04155635  0.43522342    -0.20000
C130        C  0.20763044  0.03701226  0.40552133    -0.20000
C131        C  0.19874766  0.02297794  0.10217539    -0.21000
C132        C  0.17831702  0.02668363  0.07379525    -0.21000
C133        C  0.32927268  0.01182396  0.42502092    -0.21000
C134        C  0.30820162  0.01160017  0.39675543    -0.21000
C135        C  0.25177102  0.00521778  0.10225148    -0.16400
C136        C  0.32765522  0.01082819  0.99694670    -0.16400
C137        C  0.25217159  0.00453533  0.39620260    -0.16400
C138        C  0.17991824  0.02323209  0.00209071    -0.16400
H139        H  0.30383991  0.03995900  0.12277445     0.16600
H140        H  0.34530190  0.04133260  0.06644776     0.16600
H141        H  0.16729720  0.05556886  0.43428036     0.16600
H142        H  0.20750668  0.04703472  0.37717806     0.16600
H143        H  0.19495855  0.02863861  0.13263179     0.14800
H144        H  0.15573901  0.03477035  0.07835752     0.14800
H145        H  0.35295695  0.01644613  0.42042576     0.14800
H146        H  0.31286067  0.01710206  0.36673649     0.14800
H147        H  0.27077736  0.99072464  0.02479447     0.28100
H148        H  0.23174004  0.99495406  0.47342309     0.28100
N149        N  0.28043587  0.99277788  0.29241067    -0.34700
N150        N  0.28218034  0.99166485  0.20444090    -0.55200
N151        N  0.21938184  0.99525707  0.20547693    -0.34700
N152        N  0.21765243  0.99447021  0.29356395    -0.55200
C153        C  0.30633726  0.97897838  0.28265911     0.28900
C154        C  0.27324763  0.98511408  0.32951372     0.28900
C155        C  0.22554871  0.98869296  0.16717535     0.28900
C156        C  0.19139396  0.98459719  0.21377922     0.28900
C157        C  0.31106396  0.98566593  0.21128366     0.37500
C158        C  0.27948738  0.99103690  0.16519248     0.37500
C159        C  0.22063712  0.99495774  0.33295884     0.37500
C160        C  0.18805437  0.99132854  0.28664781     0.37500
C161        C  0.31511052  0.96156438  0.31300183    -0.20000
C162        C  0.29346756  0.96444692  0.34203898    -0.20000
C163        C  0.20196455  0.97207894  0.15197793    -0.20000
C164        C  0.18007638  0.97039797  0.18088105    -0.20000
C165        C  0.32648710  0.97946594  0.17666810    -0.21000
C166        C  0.30617226  0.98142638  0.14775619    -0.21000
C167        C  0.19278890  0.98959538  0.35055778    -0.21000
C168        C  0.17220663  0.98847131  0.32162218    -0.21000
C169        C  0.32339244  0.98310678  0.24823368    -0.16400
C170        C  0.24882501  0.99662132  0.35201659    -0.16400
C171        C  0.17502050  0.98819698  0.24952361    -0.16400
C172        C  0.25232619  0.99675202  0.14599424    -0.16400
H173        H  0.33488365  0.94791557  0.31378778     0.16600
H174        H  0.29316528  0.95345352  0.36976420     0.16600
H175        H  0.20053509  0.96251659  0.12285453     0.16600
H176        H  0.15843073  0.95940909  0.17823153     0.16600
H177        H  0.34939708  0.97213289  0.17292862     0.14800
H178        H  0.31049687  0.97493534  0.11767096     0.14800
H179        H  0.18767956  0.98494446  0.38073698     0.14800
H180        H  0.14846248  0.98395089  0.32576368     0.14800
H181        H  0.27035303  0.00921620  0.27640655     0.28100
H182        H  0.23207809  0.00902508  0.22378431     0.28100
C183        C  0.11530624  0.98945481  0.24736997    -0.11300
C184        C  0.14236013  0.98773856  0.24802150    -0.12900
C185        C  0.35560039  0.98432604  0.25112185    -0.11300
C186        C  0.38219438  0.98841763  0.25365303    -0.12900
C187        C  0.14756361  0.02298990  0.00084617    -0.11300
C188        C  0.12082779  0.01884368  0.00100381    -0.12900
C189        C  0.38740270  0.00921993  0.99907735    -0.11300
C190        C  0.36035881  0.01089082  0.99784086    -0.12900
C191        C  0.97927323  0.35455180  0.25170072    -0.11300
C192        C  0.98333008  0.38126997  0.25186964    -0.12900
C193        C  0.49152664  0.14177758  0.24945359    -0.11300
C194        C  0.99338324  0.11469377  0.25011482    -0.12900
C195        C  0.01344752  0.35976393  0.99820108    -0.11300
C196        C  0.01176656  0.38683288  0.99755482    -0.12900
C197        C  0.01679932  0.14667382  0.50339649    -0.11300
C198        C  0.01290375  0.12005209  0.50555492    -0.12900
N199        N  0.00821167  0.22185618  0.54391062    -0.34700
N200        N  0.00649958  0.28460444  0.54454871    -0.55200
N201        N  0.50642102  0.28261818  0.95652449    -0.34700
N202        N  0.50962265  0.21984545  0.95602450    -0.55200
C203        C  0.01603804  0.22921773  0.58079929     0.28900
C204        C  0.52221206  0.19603020  0.53430725     0.28900
C205        C  0.01723946  0.31052710  0.96466020     0.28900
C206        C  0.51363411  0.27622692  0.91845512     0.28900
C207        C  0.00572861  0.28170020  0.58397826     0.37500
C208        C  0.00939794  0.31419294  0.53735313     0.37500
C209        C  0.51518111  0.19092330  0.96319399     0.37500
C210        C  0.51035230  0.22238169  0.91674504     0.37500
C211        C  0.03694490  0.20921459  0.59325426    -0.20000
C212        C  0.53991628  0.18750828  0.56444457    -0.20000
C213        C  0.03220234  0.32153787  0.93197263    -0.20000
C214        C  0.53086766  0.29952852  0.90339801    -0.20000
C215        C  0.01063161  0.30963909  0.60133553    -0.21000
C216        C  0.01175839  0.33015029  0.57219573    -0.21000
C217        C  0.52110482  0.17526143  0.92873725    -0.21000
C218        C  0.51952143  0.19549246  0.89959350    -0.21000
C219        C  0.00436205  0.25352945  0.60323839    -0.16400
C220        C  0.51789967  0.17881142  0.00026598    -0.16400
C221        C  0.50533515  0.24960310  0.89729946    -0.16400
C222        C  0.01297682  0.32710623  0.50011871    -0.16400
H223        H  0.04805458  0.20967689  0.62083725     0.16600
H224        H  0.55370412  0.16783683  0.56525400     0.16600
H225        H  0.04344972  0.34306251  0.92931930     0.16600
H226        H  0.54090487  0.30075622  0.87444158     0.16600
H227        H  0.01514965  0.31488477  0.63145254     0.14800
H228        H  0.01606806  0.35392427  0.57612231     0.14800
H229        H  0.52814870  0.15225644  0.92524398     0.14800
H230        H  0.52610468  0.19098117  0.86957242     0.14800
H231        H  0.99160552  0.23177507  0.52802522     0.28100
H232        H  0.49213187  0.27015823  0.97464279     0.28100
N233        N  0.49777424  0.21811233  0.79360462    -0.34700
N234        N  0.48995965  0.28059503  0.79578040    -0.55200
N235        N  0.49117944  0.28063796  0.70783989    -0.34700
N236        N  0.49635925  0.21798915  0.70544278    -0.55200
C237        C  0.48996559  0.22375550  0.83165654     0.28900
C238        C  0.48715519  0.19032035  0.78435184     0.28900
C239        C  0.47652661  0.30597828  0.71799881     0.28900
C240        C  0.48469841  0.27416294  0.67018545     0.28900
C241        C  0.49039950  0.27747131  0.83497227     0.37500
C242        C  0.48269946  0.30931085  0.78976520     0.37500
C243        C  0.49385989  0.18820349  0.71169765     0.37500
C244        C  0.49566033  0.22164066  0.66621639     0.37500
C245        C  0.47234630  0.20027848  0.84545422    -0.20000
C246        C  0.47163818  0.17871627  0.81622923    -0.20000
C247        C  0.45977553  0.31512039  0.68725428    -0.20000
C248        C  0.46397364  0.29429564  0.65756743    -0.20000
C249        C  0.48038862  0.30359554  0.85332909    -0.21000
C250        C  0.47680533  0.32406577  0.82491778    -0.21000
C251        C  0.49019396  0.17292172  0.67661964    -0.21000
C252        C  0.49002342  0.19403292  0.64831182    -0.21000
C253        C  0.49721786  0.25030117  0.85348638    -0.16400
C254        C  0.49150627  0.17448710  0.74848855    -0.16400
C255        C  0.49673513  0.25006927  0.64753115    -0.16400
C256        C  0.47927477  0.32225626  0.75324755    -0.16400
H257        H  0.46146876  0.19871601  0.87388408     0.16600
H258        H  0.46019830  0.15722033  0.81782356     0.16600
H259        H  0.44562541  0.33454191  0.68663931     0.16600
H260        H  0.45353634  0.29433724  0.62954219     0.16600
H261        H  0.47470593  0.30741978  0.88377674     0.14800
H262        H  0.46886252  0.34668173  0.82946710     0.14800
H263        H  0.48577368  0.14921448  0.67216284     0.14800
H264        H  0.48441668  0.18939602  0.61838395     0.14800
H265        H  0.51196703  0.23119872  0.77609738     0.28100
H266        H  0.50735989  0.27051932  0.72418276     0.28100
O267        O  0.48854664  0.02179144  0.91765323    -0.76600
C268        C  0.41965146  0.00688152  0.50009980     0.84500
O269        O  0.02127691  0.07444066  0.53372894    -0.77700
O270        O  0.48195335  0.48148649  0.58709525    -0.79200
O271        O  0.02964401  0.43467920  0.98111623    -0.79000
O272        O  0.02422624  0.48698690  0.91422823    -0.77600
Zn273      Zn  0.48069088  0.03158485  0.97300551     1.55700
O274        O  0.48635974  0.43106023  0.51500922    -0.79000
Cd275      Cd  0.03364537  0.48040792  0.97076832     1.59700
Cd276      Cd  0.02812468  0.02954248  0.53850391     1.59600
O277        O  0.07763498  0.49491053  0.97802158    -0.79000
O278        O  0.50410315  0.00443238  0.50226758    -1.89500
Cd279      Cd  0.47588057  0.47574364  0.52856539     1.59900
O280        O  0.07353573  0.02658498  0.52875757    -0.78900
O281        O  0.43105099  0.48503411  0.51746891    -0.77600
C282        C  0.00858032  0.08832868  0.50721151     0.85000
C283        C  0.50588371  0.00419765  0.89864424     0.84600
O284        O  0.43588433  0.02667570  0.98338379    -0.76500
C285        C  0.00905094  0.41909801  0.49784604     0.85400
O286        O  0.49301312  0.07489324  0.98166234    -0.76600
C287        C  0.08914747  0.01308765  0.50264507     0.85600
C288        C  0.99934369  0.99812568  0.60723024     0.85900
O289        O  0.01783179  0.01702180  0.59303762    -0.79100
O290        O  0.48086681  0.01363076  0.66761572    -0.76600
C291        C  0.41385294  0.99309689  0.75607359     0.84500
O292        O  0.01747827  0.07077882  0.76775756    -0.77700
O293        O  0.48438180  0.48475684  0.84333358    -0.79200
O294        O  0.00701860  0.42439539  0.72827542    -0.79000
O295        O  0.01506415  0.47740865  0.66412522    -0.77600
Zn296      Zn  0.47096078  0.02153386  0.72290117     1.55700
O297        O  0.47592758  0.42848949  0.77976645    -0.79000
Cd298      Cd  0.02168034  0.46821001  0.72071742     1.59700
Cd299      Cd  0.02661168  0.02583248  0.77842935     1.59600
O300        O  0.06740161  0.47192905  0.73094288    -0.79000
O301        O  0.49778833  0.99783073  0.75227136    -1.89500
Cd302      Cd  0.47244944  0.47391708  0.78868738     1.59900
O303        O  0.07121018  0.01519080  0.76468893    -0.78900
O304        O  0.42747510  0.48013217  0.78268925    -0.77600
C305        C  0.99568975  0.08239593  0.75053501     0.85000
C306        C  0.49806802  0.99593221  0.64857335     0.84600
O307        O  0.42755153  0.00912705  0.73098140    -0.76500
C308        C  0.98913432  0.41288956  0.75341033     0.85400
O309        O  0.47602171  0.06634684  0.73354137    -0.76600
C310        C  0.08307387  0.99244420  0.74758099     0.85600
C311        C  0.00369432  0.50281603  0.85729671     0.85900
O312        O  0.02086192  0.01963925  0.83693487    -0.79100
N313        N  0.28399421  0.00479388  0.54227300    -0.34700
N314        N  0.22162584  0.01301881  0.54456225    -0.55200
N315        N  0.22154001  0.01076949  0.95664146    -0.34700
N316        N  0.28418982  0.00538851  0.95407604    -0.55200
C317        C  0.27844721  0.01238137  0.58038748     0.28900
C318        C  0.31188003  0.01518478  0.53290254     0.28900
C319        C  0.19611611  0.02541633  0.96655683     0.28900
C320        C  0.22795392  0.01670222  0.91871282     0.28900
C321        C  0.22474869  0.01275863  0.58375833     0.37500
C322        C  0.19297651  0.02052610  0.53857976     0.37500
C323        C  0.31396362  0.00820173  0.96022520     0.37500
C324        C  0.28058354  0.00583392  0.91483065     0.37500
C325        C  0.30214585  0.02955060  0.59421167    -0.17600
C326        C  0.32367990  0.03029382  0.56483122    -0.20000
C327        C  0.18682311  0.04158159  0.93532796    -0.20000
C328        C  0.20764532  0.03706269  0.90561077    -0.20000
C329        C  0.19876096  0.02321690  0.60212362    -0.21000
C330        C  0.17832722  0.02689407  0.57373794    -0.21000
C331        C  0.32927147  0.01178800  0.92503787    -0.21000
C332        C  0.30820055  0.01159255  0.89677296    -0.21000
C333        C  0.25176539  0.00541131  0.60222869    -0.16400
C334        C  0.32765746  0.01090725  0.49692994    -0.16400
C335        C  0.25216577  0.00456687  0.89621589    -0.16400
C336        C  0.17991016  0.02330983  0.50203806    -0.16400
H337        H  0.30384351  0.04015423  0.62271641     0.16600
H338        H  0.34530975  0.04146971  0.56639123     0.16600
H339        H  0.16732243  0.05560293  0.93442057     0.16600
H340        H  0.20752350  0.04711894  0.87728876     0.16600
H341        H  0.19498243  0.02891338  0.63257202     0.14800
H342        H  0.15575347  0.03499651  0.57828572     0.14800
H343        H  0.35295765  0.01640071  0.92044561     0.14800
H344        H  0.31286264  0.01711104  0.86676049     0.14800
H345        H  0.27077707  0.99083778  0.52480598     0.28100
H346        H  0.23173860  0.99490314  0.97341652     0.28100
N347        N  0.28041426  0.99288301  0.79240770    -0.34700
N348        N  0.28215962  0.99184158  0.70442612    -0.55200
N349        N  0.21936497  0.99546311  0.70546742    -0.34700
N350        N  0.21763818  0.99460326  0.79356538    -0.55200
C351        C  0.30630187  0.97906918  0.78263003     0.28900
C352        C  0.27322250  0.98519110  0.82949869     0.28900
C353        C  0.22552537  0.98892152  0.66715640     0.28900
C354        C  0.19137424  0.98480616  0.71376328     0.28900
C355        C  0.31103797  0.98581851  0.71126782     0.37500
C356        C  0.27946897  0.99123270  0.66517714     0.37500
C357        C  0.22062016  0.99506803  0.83296146     0.37500
C358        C  0.18803941  0.99148390  0.78664463     0.37500
C359        C  0.31506209  0.96161840  0.81294257    -0.20000
C360        C  0.29342522  0.96449313  0.84198846    -0.20000
C361        C  0.20193190  0.97232795  0.65194651    -0.20000
C362        C  0.18004721  0.97063602  0.68085018    -0.20000
C363        C  0.32645957  0.97962628  0.67665091    -0.21000
C364        C  0.30614927  0.98161234  0.64773889    -0.21000
C365        C  0.19276690  0.98971641  0.85055514    -0.21000
C366        C  0.17218748  0.98862008  0.82161625    -0.21000
C367        C  0.32336113  0.98322017  0.74821403    -0.16400
C368        C  0.24880952  0.99669619  0.85202001    -0.16400
C369        C  0.17500605  0.98837512  0.74951731    -0.16400
C370        C  0.25231137  0.99696385  0.64597838    -0.16400
H371        H  0.33482403  0.94795197  0.81370199     0.16600
H372        H  0.29311645  0.95347270  0.86969519     0.16600
H373        H  0.20049738  0.96277596  0.62281813     0.16600
H374        H  0.15839959  0.95965247  0.67819179     0.16600
H375        H  0.34936335  0.97227512  0.67291081     0.14800
H376        H  0.31047218  0.97512217  0.61765353     0.14800
H377        H  0.18765090  0.98504769  0.88072785     0.14800
H378        H  0.14844079  0.98411093  0.82575213     0.14800
H379        H  0.27034434  0.00934939  0.77643010     0.28100
H380        H  0.23206997  0.00920867  0.72379196     0.28100
C381        C  0.11529121  0.98958579  0.74737007    -0.11300
C382        C  0.14234643  0.98789741  0.74801998    -0.12900
C383        C  0.35556844  0.98442000  0.75110459    -0.11300
C384        C  0.38216371  0.98849607  0.75363648    -0.12900
C385        C  0.14755391  0.02306646  0.50080311    -0.11300
C386        C  0.12081798  0.01891656  0.50096598    -0.12900
C387        C  0.38740362  0.00927309  0.49905498    -0.11300
C388        C  0.36036078  0.01095760  0.49782329    -0.12900
C389        C  0.97923606  0.35455337  0.75175249    -0.11300
C390        C  0.98329861  0.38127023  0.75192009    -0.12900
C391        C  0.49157524  0.14176524  0.74944869    -0.11300
C392        C  0.99323100  0.11468651  0.75011761    -0.12900
C393        C  0.01340011  0.35976912  0.49825416    -0.11300
C394        C  0.01172495  0.38683838  0.49760635    -0.12900
C395        C  0.01688152  0.14666931  0.00341816    -0.11300
C396        C  0.01297687  0.12004836  0.00559293    -0.12900
N397        N  0.00822868  0.72185482  0.04389575    -0.34700
N398        N  0.00648459  0.78460455  0.04452527    -0.55200
N399        N  0.50639465  0.78263018  0.45647888    -0.34700
N400        N  0.50960305  0.71985193  0.45595616    -0.55200
C401        C  0.01606549  0.72922419  0.08077675     0.28900
C402        C  0.52223598  0.69602160  0.03424892     0.28900
C403        C  0.01719248  0.81053603  0.46464628     0.28900
C404        C  0.51359974  0.77624983  0.41840372     0.28900
C405        C  0.00572836  0.78170338  0.08395619     0.37500
C406        C  0.00936866  0.81419375  0.03732719     0.37500
C407        C  0.51518270  0.69093263  0.46311114     0.37500
C408        C  0.51036388  0.72240271  0.41668057     0.37500
C409        C  0.03698070  0.70922336  0.09322382    -0.20000
C410        C  0.53994079  0.68748944  0.06438016    -0.20000
C411        C  0.03216650  0.82154896  0.43196844    -0.20000
C412        C  0.53081575  0.79956395  0.40334681    -0.20000
C413        C  0.01062794  0.80964600  0.10131041    -0.21000
C414        C  0.01173290  0.83015476  0.07216915    -0.21000
C415        C  0.52115329  0.67528965  0.42865281    -0.21000
C416        C  0.51957746  0.69553138  0.39952202    -0.21000
C417        C  0.00438480  0.75353275  0.10322039    -0.16400
C418        C  0.51787520  0.67880829  0.50017704    -0.16400
C419        C  0.50532159  0.74962032  0.39724493    -0.16400
C420        C  0.01294112  0.82710671  0.00009165    -0.16400
H421        H  0.04810031  0.70968399  0.12079944     0.16600
H422        H  0.55372119  0.66781230  0.06518364     0.16600
H423        H  0.04341624  0.84307311  0.42932240     0.16600
H424        H  0.54084889  0.80080156  0.37438891     0.16600
H425        H  0.01515738  0.81489882  0.13142279     0.14800
H426        H  0.01602429  0.85393154  0.07609755     0.14800
H427        H  0.52821894  0.65229186  0.42515404     0.14800
H428        H  0.52618560  0.69103966  0.36950453     0.14800
H429        H  0.99160413  0.73177301  0.02801013     0.28100
H430        H  0.49212324  0.77015518  0.47460466     0.28100
N431        N  0.49780149  0.71811476  0.29355378    -0.34700
N432        N  0.48995062  0.78059415  0.29572481    -0.55200
N433        N  0.49122579  0.78064250  0.20778557    -0.34700
N434        N  0.49641347  0.71798911  0.20539458    -0.55200
C435        C  0.48998403  0.72375469  0.33160291     0.28900
C436        C  0.48721108  0.69031233  0.28430219     0.28900
C437        C  0.47656547  0.80598014  0.21793496     0.28900
C438        C  0.48475716  0.77416380  0.17012837     0.28900
C439        C  0.49037304  0.77746943  0.33491608     0.37500
C440        C  0.48268388  0.80930669  0.28970764     0.37500
C441        C  0.49391005  0.68820340  0.21164851     0.37500
C442        C  0.49571167  0.72164053  0.16616846     0.37500
C443        C  0.47238955  0.70026090  0.34540130    -0.20000
C444        C  0.47170533  0.67869572  0.31617906    -0.20000
C445        C  0.45982399  0.81511772  0.18718158    -0.20000
C446        C  0.46403394  0.79429236  0.15749900    -0.20000
C447        C  0.48034025  0.80358555  0.35326850    -0.21000
C448        C  0.47676353  0.82405588  0.32485655    -0.21000
C449        C  0.49023494  0.67292319  0.17657193    -0.21000
C450        C  0.49006480  0.69403463  0.14826527    -0.21000
C451        C  0.49721015  0.75030792  0.35343209    -0.16400
C452        C  0.49157061  0.67448383  0.24843776    -0.16400
C453        C  0.49679628  0.75006782  0.14748139    -0.16400
C454        C  0.47928817  0.82225504  0.25318857    -0.16400
H455        H  0.46151077  0.69869107  0.37382932     0.16600
H456        H  0.46028524  0.65718979  0.31777300     0.16600
H457        H  0.44566635  0.83453315  0.18656235     0.16600
H458        H  0.45360140  0.79432802  0.12947063     0.16600
H459        H  0.47464564  0.80740490  0.38371375     0.14800
H460        H  0.46881265  0.84666914  0.32940152     0.14800
H461        H  0.48581009  0.64921681  0.17211554     0.14800
H462        H  0.48445330  0.68939900  0.11833887     0.14800
H463        H  0.51198272  0.73121467  0.27604518     0.28100
H464        H  0.50739778  0.77052193  0.22414436     0.28100
O465        O  0.48854862  0.52177075  0.41760320    -0.76600
C466        C  0.41964639  0.50688992  0.00007129     0.84500
O467        O  0.02128672  0.57442938  0.03373133    -0.77700
O468        O  0.48196523  0.98148104  0.08712788    -0.79200
O469        O  0.02963835  0.93468672  0.48113861    -0.79000
O470        O  0.02420133  0.98698209  0.41424227    -0.77600
Zn471      Zn  0.48067748  0.53157958  0.47294183     1.55700
O472        O  0.48640543  0.93105113  0.01504219    -0.79000
Cd473      Cd  0.03363133  0.98041443  0.47077994     1.59700
Cd474      Cd  0.02812712  0.52952551  0.03851036     1.59600
O475        O  0.07762264  0.99491939  0.47801069    -0.79000
O476        O  0.50410403  0.50443166  0.00223847    -1.89500
Cd477      Cd  0.47590797  0.97572903  0.02859856     1.59900
O478        O  0.07353843  0.52656445  0.02877967    -0.78900
O479        O  0.43107678  0.98499428  0.01748371    -0.77600
C480        C  0.00859673  0.58832078  0.00721000     0.85000
C481        C  0.50590874  0.50419269  0.39860689     0.84600
O482        O  0.43587015  0.52669259  0.48332405    -0.76500
C483        C  0.00903101  0.91909751  0.99784536     0.85400
O484        O  0.49300773  0.57488581  0.48155867    -0.76600
C485        C  0.08915456  0.51307392  0.00266625     0.85600
C486        C  0.99933367  0.49809753  0.10722456     0.85900
O487        O  0.01782303  0.51699516  0.09303799    -0.79100
O488        O  0.48086413  0.51363342  0.16758991    -0.76600
C489        C  0.41387610  0.49313086  0.25607486     0.84500
O490        O  0.01754034  0.57075334  0.26774711    -0.77700
O491        O  0.48440277  0.98472971  0.34334117    -0.79200
O492        O  0.00705043  0.92440563  0.22827782    -0.79000
O493        O  0.01507529  0.97740884  0.16413115    -0.77600
Zn494      Zn  0.47098729  0.52154347  0.22288116     1.55700
O495        O  0.47594030  0.92847998  0.27974366    -0.79000
Cd496      Cd  0.02169811  0.96822115  0.22072135     1.59700
Cd497      Cd  0.02664157  0.52579874  0.27842110     1.59600
O498        O  0.06741851  0.97194494  0.23094420    -0.79000
O499        O  0.49781474  0.49782684  0.25223397    -1.89500
Cd500      Cd  0.47247261  0.97390667  0.28868758     1.59900
O501        O  0.07123323  0.51513508  0.26468426    -0.78900
O502        O  0.42750109  0.98013501  0.28269066    -0.77600
C503        C  0.99576653  0.58238636  0.25051413     0.85000
C504        C  0.49805003  0.49592599  0.14853799     0.84600
O505        O  0.42757390  0.50916470  0.23098604    -0.76500
C506        C  0.98916681  0.91289516  0.25340922     0.85400
O507        O  0.47608363  0.56635259  0.23351146    -0.76600
C508        C  0.08308814  0.49238545  0.24757381     0.85600
C509        C  0.00369038  0.00281815  0.35730254     0.85900
O510        O  0.02088708  0.51960446  0.33692622    -0.79100
N511        N  0.28399705  0.50476175  0.04227717    -0.34700
N512        N  0.22163312  0.51301277  0.04458283    -0.55200
N513        N  0.22151688  0.51084817  0.45666432    -0.34700
N514        N  0.28417030  0.50547254  0.45410180    -0.55200
C515        C  0.27845663  0.51234260  0.08039566     0.28900
C516        C  0.31188242  0.51515092  0.03290072     0.28900
C517        C  0.19608638  0.52548850  0.46657016     0.28900
C518        C  0.22792284  0.51676220  0.41872730     0.28900
C519        C  0.22475580  0.51273149  0.08377884     0.37500
C520        C  0.19298226  0.52051916  0.03860712     0.37500
C521        C  0.31394152  0.50832262  0.46024979     0.37500
C522        C  0.28056239  0.50594321  0.41485850     0.37500
C523        C  0.30215987  0.52950675  0.09421516    -0.17600
C524        C  0.32368951  0.53025048  0.06483080    -0.20000
C525        C  0.18678031  0.54162938  0.43532450    -0.20000
C526        C  0.20760025  0.53710232  0.40560775    -0.20000
C527        C  0.19876463  0.52317471  0.10215288    -0.21000
C528        C  0.17833126  0.52686279  0.07377084    -0.21000
C529        C  0.32924194  0.51196246  0.42506735    -0.21000
C530        C  0.30816911  0.51176021  0.39680520    -0.21000
C531        C  0.25177497  0.50537924  0.10224327    -0.16400
C532        C  0.32765200  0.51088890  0.99691919    -0.16400
C533        C  0.25214786  0.50464029  0.39624075    -0.16400
C534        C  0.17991304  0.52332110  0.00206932    -0.16400
H535        H  0.30386312  0.54011093  0.12271848     0.16600
H536        H  0.34532059  0.54142369  0.06638933     0.16600
H537        H  0.16727353  0.55564154  0.43440338     0.16600
H538        H  0.20747132  0.54714558  0.37727783     0.16600
H539        H  0.19498187  0.52885766  0.13260449     0.14800
H540        H  0.15575609  0.53495895  0.07832682     0.14800
H541        H  0.35292196  0.51661136  0.42048068     0.14800
H542        H  0.31281948  0.51730144  0.36679693     0.14800
H543        H  0.27077143  0.49081530  0.02480412     0.28100
H544        H  0.23172456  0.49499664  0.47345169     0.28100
N545        N  0.28042468  0.49293642  0.29243440    -0.34700
N546        N  0.28217428  0.49186286  0.20445106    -0.55200
N547        N  0.21937776  0.49542094  0.20547967    -0.34700
N548        N  0.21764639  0.49461093  0.29357931    -0.55200
C549        C  0.30633099  0.47914885  0.28267774     0.28900
C550        C  0.27324223  0.48526973  0.32953838     0.28900
C551        C  0.22554272  0.48887863  0.16717078     0.28900
C552        C  0.19139191  0.48475257  0.21377568     0.28900
C553        C  0.31105320  0.48584690  0.21129836     0.37500
C554        C  0.27948314  0.49122575  0.16520156     0.37500
C555        C  0.22062521  0.49509425  0.33297647     0.37500
C556        C  0.18805029  0.49145821  0.28665482     0.37500
C557        C  0.31511594  0.46174135  0.31302030    -0.20000
C558        C  0.29347514  0.46461413  0.34206023    -0.20000
C559        C  0.20195707  0.47227367  0.15196069    -0.20000
C560        C  0.18007214  0.47057356  0.18086379    -0.20000
C561        C  0.32647377  0.47963157  0.17668600    -0.21000
C562        C  0.30616282  0.48159574  0.14777246    -0.21000
C563        C  0.19277584  0.48972149  0.35056715    -0.21000
C564        C  0.17219893  0.48859226  0.32162619    -0.21000
C565        C  0.32338063  0.48327814  0.24824769    -0.16400
C566        C  0.24881025  0.49675707  0.35204392    -0.16400
C567        C  0.17502024  0.48832394  0.24952684    -0.16400
C568        C  0.25232433  0.49693561  0.14599487    -0.16400
H569        H  0.33489462  0.44810057  0.31380301     0.16600
H570        H  0.29318019  0.45361679  0.36978234     0.16600
H571        H  0.20052662  0.46272246  0.12283151     0.16600
H572        H  0.15842849  0.45958190  0.17820456     0.16600
H573        H  0.34937766  0.47227964  0.17295082     0.14800
H574        H  0.31048447  0.47508604  0.11769309     0.14800
H575        H  0.18766222  0.48506047  0.38074226     0.14800
H576        H  0.14845625  0.48406128  0.32576341     0.14800
H577        H  0.27033273  0.50937202  0.27642893     0.28100
H578        H  0.23207186  0.50918182  0.22379925     0.28100
C579        C  0.11530489  0.48951593  0.24736701    -0.11300
C580        C  0.14236039  0.48783098  0.24802508    -0.12900
C581        C  0.35558816  0.48447546  0.25112673    -0.11300
C582        C  0.38218482  0.48854323  0.25364965    -0.12900
C583        C  0.14755750  0.52306814  0.00083806    -0.11300
C584        C  0.12082362  0.51890789  0.00099721    -0.12900
C585        C  0.38739870  0.50927915  0.99902677    -0.11300
C586        C  0.36035513  0.51095245  0.99780056    -0.12900
C587        C  0.97928690  0.85455786  0.25173624    -0.11300
C588        C  0.98334111  0.88127556  0.25191220    -0.12900
C589        C  0.49165749  0.64176247  0.24939524    -0.11300
C590        C  0.99333199  0.61468004  0.25009165    -0.12900
C591        C  0.01336552  0.85976800  0.99823136    -0.11300
C592        C  0.01169384  0.88683733  0.99759413    -0.12900
C593        C  0.01683993  0.64666487  0.50336847    -0.11300
C594        C  0.01292995  0.62004473  0.50553469    -0.12900
N595        N  0.00827097  0.72184894  0.54387060    -0.34700
N596        N  0.00653484  0.78460233  0.54450101    -0.55200
N597        N  0.50643156  0.78263409  0.95646895    -0.34700
N598        N  0.50960680  0.71985258  0.95594744    -0.55200
C599        C  0.01612147  0.72922253  0.58074598     0.28900
C600        C  0.52217249  0.69602535  0.53427105     0.28900
C601        C  0.01716681  0.81054093  0.96467358     0.28900
C602        C  0.51359574  0.77625403  0.91838148     0.28900
C603        C  0.00578802  0.78169820  0.58393039     0.37500
C604        C  0.00942308  0.81419194  0.53730298     0.37500
C605        C  0.51518984  0.69093161  0.96309745     0.37500
C606        C  0.51034362  0.72240373  0.91667075     0.37500
C607        C  0.03704881  0.70923410  0.59318095    -0.20000
C608        C  0.53986275  0.68749949  0.56442005    -0.20000
C609        C  0.03214431  0.82155940  0.93200592    -0.20000
C610        C  0.53079474  0.79956906  0.90329551    -0.20000
C611        C  0.01069356  0.80963845  0.60128134    -0.21000
C612        C  0.01179945  0.83015103  0.57214210    -0.21000
C613        C  0.52113720  0.67528760  0.92863300    -0.21000
C614        C  0.51954366  0.69552969  0.89950427    -0.21000
C615        C  0.00444478  0.75352859  0.60319447    -0.16400
C616        C  0.51791091  0.67880574  0.00016044    -0.16400
C617        C  0.50529718  0.74962346  0.89723650    -0.16400
C618        C  0.01298862  0.82710457  0.50006728    -0.16400
H619        H  0.04817773  0.70971091  0.62075019     0.16600
H620        H  0.55365478  0.66783138  0.56523416     0.16600
H621        H  0.04338303  0.84308874  0.92937341     0.16600
H622        H  0.54079786  0.80080490  0.87432087     0.16600
H623        H  0.01523038  0.81488167  0.63139338     0.14800
H624        H  0.01610472  0.85392642  0.57606314     0.14800
H625        H  0.52819984  0.65228921  0.92512634     0.14800
H626        H  0.52613349  0.69103645  0.86948083     0.14800
H627        H  0.99165648  0.73176361  0.52799500     0.28100
H628        H  0.49217696  0.77016327  0.97461565     0.28100
N629        N  0.49770622  0.71811730  0.79355302    -0.34700
N630        N  0.48987026  0.78059826  0.79572869    -0.55200
N631        N  0.49109868  0.78064262  0.70779659    -0.34700
N632        N  0.49628990  0.71799009  0.70539969    -0.55200
C633        C  0.48991682  0.72375826  0.83161020     0.28900
C634        C  0.48710327  0.69031837  0.78431123     0.28900
C635        C  0.47644959  0.80598749  0.71794548     0.28900
C636        C  0.48462932  0.77416659  0.67013803     0.28900
C637        C  0.49031113  0.77747210  0.83491943     0.37500
C638        C  0.48258875  0.80930838  0.78971968     0.37500
C639        C  0.49378480  0.68820481  0.71165349     0.37500
C640        C  0.49558750  0.72164080  0.66617448     0.37500
C641        C  0.47232567  0.70026858  0.84542697    -0.20000
C642        C  0.47161601  0.67870468  0.81620494    -0.20000
C643        C  0.45971329  0.81513291  0.68718946    -0.20000
C644        C  0.46391330  0.79430504  0.65750687    -0.20000
C645        C  0.48027767  0.80358393  0.85328239    -0.21000
C646        C  0.47667767  0.82405345  0.82487541    -0.21000
C647        C  0.49011067  0.67292301  0.67657643    -0.21000
C648        C  0.48994192  0.69403430  0.64826921    -0.21000
C649        C  0.49716003  0.75031084  0.85343030    -0.16400
C650        C  0.49144068  0.67448783  0.74844414    -0.16400
C651        C  0.49666784  0.75006826  0.64748978    -0.16400
C652        C  0.47917395  0.82225934  0.75320424    -0.16400
H653        H  0.46146319  0.69870184  0.87386512     0.16600
H654        H  0.46019440  0.65720041  0.81781315     0.16600
H655        H  0.44556425  0.83455460  0.68656908     0.16600
H656        H  0.45348076  0.79434885  0.62947831     0.16600
H657        H  0.47460191  0.80740095  0.88373368     0.14800
H658        H  0.46872172  0.84666403  0.82943059     0.14800
H659        H  0.48568524  0.64921651  0.67212034     0.14800
H660        H  0.48433365  0.68939897  0.61834116     0.14800
H661        H  0.51187863  0.73121756  0.77602568     0.28100
H662        H  0.50727362  0.77052105  0.72415166     0.28100
O663        O  0.48856648  0.52178993  0.91760805    -0.76600
C664        C  0.41963318  0.50688145  0.50009615     0.84500
O665        O  0.02125433  0.57443701  0.53374735    -0.77700
O666        O  0.48196919  0.98146926  0.58712358    -0.79200
O667        O  0.02959630  0.93467346  0.98115466    -0.79000
O668        O  0.02419899  0.98697184  0.91425106    -0.77600
Zn669      Zn  0.48069710  0.53158849  0.97294625     1.55700
O670        O  0.48635401  0.93105855  0.51502977    -0.79000
Cd671      Cd  0.03362168  0.98039688  0.97079371     1.59700
Cd672      Cd  0.02810007  0.52953737  0.53852433     1.59600
O673        O  0.07762255  0.99487244  0.97803452    -0.79000
O674        O  0.50409415  0.50443730  0.50224118    -1.89500
Cd675      Cd  0.47588853  0.97574107  0.52859359     1.59900
O676        O  0.07351263  0.52658931  0.52878914    -0.78900
O677        O  0.43106400  0.98503817  0.51748678    -0.77600
C678        C  0.00858646  0.58832300  0.50720450     0.85000
C679        C  0.50590223  0.50418978  0.89860998     0.84600
O680        O  0.43588752  0.52670665  0.98331560    -0.76500
C681        C  0.00908202  0.91910081  0.49783181     0.85400
O682        O  0.49303764  0.57488794  0.98157213    -0.76600
C683        C  0.08913501  0.51308595  0.50269292     0.85600
C684        C  0.99931275  0.49810909  0.60724048     0.85900
O685        O  0.01780135  0.51700706  0.59305312    -0.79100
O686        O  0.48082740  0.51364477  0.66760022    -0.76600
C687        C  0.41385311  0.49302577  0.75607837     0.84500
O688        O  0.01757067  0.57074714  0.76773417    -0.77700
O689        O  0.48433922  0.98478058  0.84336790    -0.79200
O690        O  0.00708581  0.92443006  0.72826387    -0.79000
O691        O  0.01510748  0.97745328  0.66412596    -0.77600
Zn692      Zn  0.47093035  0.52152791  0.72289747     1.55700
O693        O  0.47585077  0.92849991  0.77978776    -0.79000
Cd694      Cd  0.02171009  0.96825614  0.72072019     1.59700
Cd695      Cd  0.02664594  0.52578698  0.77841507     1.59600
O696        O  0.06742362  0.97201576  0.73095653    -0.79000
O697        O  0.49778909  0.49784130  0.75224471    -1.89500
Cd698      Cd  0.47241781  0.97393643  0.78871243     1.59900
O699        O  0.07123140  0.51509520  0.76468476    -0.78900
O700        O  0.42745528  0.98020061  0.78269807    -0.77600
C701        C  0.99579351  0.58238906  0.75051599     0.85000
C702        C  0.49803787  0.49596031  0.64854810     0.84600
O703        O  0.42753074  0.50908226  0.73099547    -0.76500
C704        C  0.98919383  0.91291035  0.75337885     0.85400
O705        O  0.47596903  0.56634273  0.73354251    -0.76600
C706        C  0.08307219  0.49233809  0.74757469     0.85600
C707        C  0.00369408  0.00282806  0.85731135     0.85900
O708        O  0.02088799  0.51959905  0.83691678    -0.79100
N709        N  0.28397775  0.50475784  0.54231065    -0.34700
N710        N  0.22161196  0.51298448  0.54461831    -0.55200
N711        N  0.22153299  0.51081731  0.95663196    -0.34700
N712        N  0.28418116  0.50541650  0.95406448    -0.55200
C713        C  0.27843528  0.51229786  0.58044115     0.28900
C714        C  0.31186604  0.51515045  0.53295701     0.28900
C715        C  0.19609910  0.52545744  0.96651931     0.28900
C716        C  0.22793153  0.51669326  0.91868236     0.28900
C717        C  0.22473232  0.51267523  0.58381326     0.37500
C718        C  0.19296071  0.52049358  0.53864929     0.37500
C719        C  0.31395489  0.50824545  0.96020380     0.37500
C720        C  0.28056975  0.50584701  0.91481995     0.37500
C721        C  0.30214184  0.52943995  0.59429623    -0.17600
C722        C  0.32367361  0.53021260  0.56491542    -0.20000
C723        C  0.18678189  0.54156001  0.93524735    -0.20000
C724        C  0.20759801  0.53700967  0.90553201    -0.20000
C725        C  0.19873923  0.52310439  0.60219686    -0.21000
C726        C  0.17830637  0.52681192  0.57381894    -0.21000
C727        C  0.32925602  0.51182833  0.92501078    -0.21000
C728        C  0.30818068  0.51161661  0.89675228    -0.21000
C729        C  0.25175135  0.50531292  0.60227176    -0.16400
C730        C  0.32763733  0.51092288  0.49697014    -0.16400
C731        C  0.25215241  0.50454820  0.89620799    -0.16400
C732        C  0.17989541  0.52332331  0.50211340    -0.16400
H733        H  0.30384581  0.54001101  0.62281953     0.16600
H734        H  0.34530719  0.54137829  0.56649718     0.16600
H735        H  0.16726981  0.55556315  0.93430867     0.16600
H736        H  0.20745917  0.54702241  0.87718383     0.16600
H737        H  0.19495631  0.52876757  0.63265397     0.14800
H738        H  0.15573094  0.53490595  0.57838302     0.14800
H739        H  0.35293986  0.51644854  0.92040915     0.14800
H740        H  0.31283533  0.51712592  0.86673465     0.14800
H741        H  0.27075243  0.49083259  0.52481170     0.28100
H742        H  0.23174191  0.49498031  0.97344038     0.28100
N743        N  0.28041455  0.49278025  0.79241575    -0.34700
N744        N  0.28215372  0.49170100  0.70444931    -0.55200
N745        N  0.21935575  0.49530707  0.70549159    -0.34700
N746        N  0.21763074  0.49447996  0.79357556    -0.55200
C747        C  0.30631170  0.47897485  0.78266168     0.28900
C748        C  0.27322857  0.48512372  0.82952173     0.28900
C749        C  0.22551718  0.48877432  0.66718009     0.28900
C750        C  0.19136695  0.48464448  0.71378321     0.28900
C751        C  0.31103104  0.48566935  0.71128467     0.37500
C752        C  0.27945698  0.49108890  0.66520133     0.37500
C753        C  0.22061756  0.49495886  0.83296971     0.37500
C754        C  0.18803402  0.49132365  0.78666200     0.37500
C755        C  0.31508499  0.46156478  0.81300780    -0.20000
C756        C  0.29344675  0.46445568  0.84204910    -0.20000
C757        C  0.20192699  0.47218017  0.65196215    -0.20000
C758        C  0.18004230  0.47047767  0.68086546    -0.20000
C759        C  0.32644399  0.47946477  0.67666412    -0.21000
C760        C  0.30613023  0.48145701  0.64775587    -0.21000
C761        C  0.19277388  0.48957581  0.85057174    -0.21000
C762        C  0.17219027  0.48844508  0.82163705    -0.21000
C763        C  0.32336303  0.48309193  0.74823031    -0.16400
C764        C  0.24880598  0.49663254  0.85202338    -0.16400
C765        C  0.17499847  0.48820979  0.74953684    -0.16400
C766        C  0.25229970  0.49683234  0.64600924    -0.16400
H767        H  0.33485499  0.44791194  0.81379260     0.16600
H768        H  0.29314568  0.45346509  0.86977635     0.16600
H769        H  0.20049326  0.46263861  0.62282818     0.16600
H770        H  0.15839564  0.45949276  0.67820191     0.16600
H771        H  0.34934600  0.47210953  0.67291891     0.14800
H772        H  0.31044629  0.47497322  0.61766621     0.14800
H773        H  0.18767058  0.48491835  0.88075109     0.14800
H774        H  0.14844884  0.48390902  0.82577798     0.14800
H775        H  0.27033028  0.50921815  0.77640704     0.28100
H776        H  0.23205738  0.50905571  0.72381614     0.28100
C777        C  0.11528587  0.48944474  0.74737469    -0.11300
C778        C  0.14233922  0.48773824  0.74803768    -0.12900
C779        C  0.35557190  0.48429893  0.75111127    -0.11300
C780        C  0.38216579  0.48839228  0.75364387    -0.12900
C781        C  0.14753974  0.52307756  0.50087684    -0.11300
C782        C  0.12080488  0.51892134  0.50103024    -0.12900
C783        C  0.38738462  0.50927737  0.49907026    -0.11300
C784        C  0.36034137  0.51096912  0.49785410    -0.12900
C785        C  0.97933906  0.85456587  0.75170362    -0.11300
C786        C  0.98338312  0.88128603  0.75187821    -0.12900
C787        C  0.49151081  0.64176755  0.74940409    -0.11300
C788        C  0.99337375  0.61468416  0.75009003    -0.12900
C789        C  0.01342464  0.85976916  0.49820731    -0.11300
C790        C  0.01175711  0.88684023  0.49757714    -0.12900
C791        C  0.01681647  0.64666846  0.00338719    -0.11300
C792        C  0.01292451  0.62004561  0.00555332    -0.12900
N793        N  0.50827138  0.22186134  0.04398252    -0.34700
N794        N  0.50654148  0.28460586  0.04459540    -0.55200
N795        N  0.00638544  0.28264080  0.45647696    -0.34700
N796        N  0.00958818  0.21986429  0.45595142    -0.55200
C797        C  0.51611619  0.22924050  0.08085890     0.28900
C798        C  0.02227172  0.19604674  0.03425135     0.28900
C799        C  0.51723138  0.31052109  0.46473229     0.28900
C800        C  0.01358452  0.27626273  0.41839854     0.28900
C801        C  0.50576181  0.28171481  0.08402699     0.37500
C802        C  0.50940655  0.31419421  0.03738469     0.37500
C803        C  0.01517520  0.19094645  0.46310759     0.37500
C804        C  0.01035302  0.22241615  0.41667562     0.37500
C805        C  0.53703656  0.20924746  0.09330618    -0.20000
C806        C  0.03998130  0.18753055  0.06438613    -0.20000
C807        C  0.53221514  0.32152506  0.43205672    -0.20000
C808        C  0.03079956  0.29957617  0.40333970    -0.20000
C809        C  0.51062328  0.30966602  0.10137245    -0.21000
C810        C  0.51173400  0.33016796  0.07222056    -0.21000
C811        C  0.02115403  0.17530493  0.42864941    -0.21000
C812        C  0.01957564  0.19554706  0.39951832    -0.21000
C813        C  0.50442896  0.25354844  0.10329889    -0.16400
C814        C  0.01786442  0.17882237  0.50017505    -0.16400
C815        C  0.00530533  0.24963347  0.39723994    -0.16400
C816        C  0.51299766  0.32709410  0.00014437    -0.16400
H817        H  0.54815703  0.20971767  0.12088154     0.16600
H818        H  0.05377411  0.16786278  0.06519515     0.16600
H819        H  0.54347041  0.34304636  0.42941221     0.16600
H820        H  0.04082777  0.30081340  0.37437882     0.16600
H821        H  0.51512891  0.31492781  0.13148869     0.14800
H822        H  0.51601210  0.35394837  0.07613561     0.14800
H823        H  0.02822523  0.15230872  0.42515079     0.14800
H824        H  0.02618676  0.19105782  0.36950110     0.14800
H825        H  0.49165180  0.23176943  0.02810569     0.28100
H826        H  0.99211436  0.27016953  0.47460020     0.28100
N827        N  0.99777648  0.21812590  0.29354882    -0.34700
N828        N  0.98988595  0.28059599  0.29571863    -0.55200
N829        N  0.99116216  0.28064040  0.20777859    -0.34700
N830        N  0.99640723  0.21799693  0.20538709    -0.55200
C831        C  0.98996589  0.22376398  0.33160074     0.28900
C832        C  0.98719382  0.19032047  0.28429872     0.28900
C833        C  0.97647898  0.30596477  0.21792653     0.28900
C834        C  0.98470667  0.27415987  0.17011735     0.28900
C835        C  0.99033692  0.27748058  0.33491046     0.37500
C836        C  0.98261642  0.30930748  0.28969693     0.37500
C837        C  0.99391169  0.18821059  0.21164283     0.37500
C838        C  0.99571705  0.22164767  0.16615931     0.37500
C839        C  0.97238247  0.20026443  0.34540410    -0.20000
C840        C  0.97169946  0.17869956  0.31618182    -0.20000
C841        C  0.95973390  0.31509100  0.18716816    -0.20000
C842        C  0.96396606  0.29427164  0.15748260    -0.20000
C843        C  0.98031871  0.30360321  0.35326253    -0.21000
C844        C  0.97672105  0.32406616  0.32484618    -0.21000
C845        C  0.99025753  0.17292806  0.17656350    -0.21000
C846        C  0.99009054  0.19403789  0.14825378    -0.21000
C847        C  0.99718513  0.25032078  0.35342807    -0.16400
C848        C  0.99155331  0.17449120  0.24843304    -0.16400
C849        C  0.99677571  0.25007661  0.14747283    -0.16400
C850        C  0.97920013  0.32224735  0.25317522    -0.16400
H851        H  0.96150635  0.19869195  0.37383323     0.16600
H852        H  0.96028792  0.15718978  0.31778155     0.16600
H853        H  0.94556357  0.33449691  0.18654551     0.16600
H854        H  0.95353933  0.29430478  0.12944969     0.16600
H855        H  0.97464614  0.30743301  0.38371173     0.14800
H856        H  0.96877554  0.34668149  0.32939141     0.14800
H857        H  0.98584107  0.14922039  0.17210650     0.14800
H858        H  0.98448641  0.18939869  0.11832542     0.14800
H859        H  0.01194651  0.23123491  0.27603099     0.28100
H860        H  0.00734896  0.27053951  0.22413625     0.28100
O861        O  0.98853975  0.02179267  0.41761048    -0.76600
C862        C  0.91964765  0.00692119  0.00010220     0.84500
O863        O  0.52131514  0.07440849  0.03378644    -0.77700
O864        O  0.98197217  0.48146642  0.08708731    -0.79200
O865        O  0.52961981  0.43466859  0.48113045    -0.79000
O866        O  0.52423755  0.48698850  0.41423060    -0.77600
Zn867      Zn  0.98067995  0.03159742  0.47295314     1.55700
O868        O  0.98637568  0.43106039  0.01497593    -0.79000
Cd869      Cd  0.53363115  0.48039705  0.47077693     1.59700
Cd870      Cd  0.52815479  0.02950466  0.03853784     1.59600
O871        O  0.57762096  0.49489013  0.47803617    -0.79000
O872        O  0.00410141  0.00444916  0.00226502    -1.89500
Cd873      Cd  0.97589786  0.47574077  0.02855266     1.59900
O874        O  0.57356356  0.02654202  0.02878288    -0.78900
O875        O  0.93107079  0.48503213  0.01744125    -0.77600
C876        C  0.50860034  0.08831065  0.00729650     0.85000
C877        C  0.00588058  0.00419388  0.39861727     0.84600
O878        O  0.93587625  0.02670346  0.48334288    -0.76500
C879        C  0.50905013  0.41908065  0.99782810     0.85400
O880        O  0.99300843  0.07490108  0.48157193    -0.76600
C881        C  0.58916905  0.01305797  0.00265316     0.85600
C882        C  0.49934250  0.99810077  0.10725646     0.85900
O883        O  0.51785576  0.01697215  0.09306256    -0.79100
O884        O  0.98085900  0.01362722  0.16761521    -0.76600
C885        C  0.91387996  0.99305483  0.25606349     0.84500
O886        O  0.51752493  0.07078104  0.26779985    -0.77700
O887        O  0.98438891  0.48473621  0.34333594    -0.79200
O888        O  0.50698715  0.42439533  0.22829674    -0.79000
O889        O  0.51504504  0.47738227  0.16411215    -0.77600
Zn890      Zn  0.97097376  0.02153122  0.22290509     1.55700
O891        O  0.97591928  0.42847093  0.27973677    -0.79000
Cd892      Cd  0.52167153  0.46819912  0.22070862     1.59700
Cd893      Cd  0.52664374  0.02582607  0.27844640     1.59600
O894        O  0.56740111  0.47190081  0.23091679    -0.79000
O895        O  0.99781525  0.99782393  0.25225066    -1.89500
Cd896      Cd  0.97246464  0.47389943  0.28868080     1.59900
O897        O  0.57124223  0.01517640  0.26469772    -0.78900
O898        O  0.92749428  0.48013674  0.28268777    -0.77600
C899        C  0.49574741  0.08241096  0.25056979     0.85000
C900        C  0.99806206  0.99593746  0.14856136     0.84600
O901        O  0.92756768  0.00912235  0.23100250    -0.76500
C902        C  0.48908752  0.41290659  0.25342800     0.85400
O903        O  0.97604281  0.06634769  0.23353445    -0.76600
C904        C  0.58309693  0.99242926  0.24757798     0.85600
C905        C  0.50371803  0.50282177  0.35729128     0.85900
O906        O  0.52088534  0.01961711  0.33694662    -0.79100
N907        N  0.78399947  0.00474210  0.04226041    -0.34700
N908        N  0.72163571  0.01296079  0.04456010    -0.55200
N909        N  0.72153762  0.01078770  0.45662589    -0.34700
N910        N  0.78418930  0.00541677  0.45407191    -0.55200
C911        C  0.77845125  0.01231629  0.08037882     0.28900
C912        C  0.81187539  0.01515910  0.03288708     0.28900
C913        C  0.69610545  0.02542950  0.46652215     0.28900
C914        C  0.72794947  0.01670641  0.41869106     0.28900
C915        C  0.72475185  0.01266182  0.08375648     0.37500
C916        C  0.69298411  0.02045993  0.03858005     0.37500
C917        C  0.81396033  0.00825341  0.46022462     0.37500
C918        C  0.78058548  0.00586639  0.41482679     0.37500
C919        C  0.80213775  0.02950055  0.09420385    -0.17600
C920        C  0.82366717  0.03026855  0.06481839    -0.20000
C921        C  0.68680537  0.04157630  0.43527657    -0.20000
C922        C  0.70763161  0.03705277  0.40556644    -0.20000
C923        C  0.69875281  0.02308421  0.10212907    -0.21000
C924        C  0.67832413  0.02677871  0.07374365    -0.21000
C925        C  0.82926750  0.01186152  0.42504020    -0.21000
C926        C  0.80819732  0.01165329  0.39677195    -0.21000
C927        C  0.75177527  0.00532699  0.10222196    -0.16400
C928        C  0.82765490  0.01090567  0.99691118    -0.16400
C929        C  0.75217114  0.00457609  0.39620767    -0.16400
C930        C  0.67992531  0.02328752  0.00204133    -0.16400
H931        H  0.80383028  0.04009374  0.12271528     0.16600
H932        H  0.84528777  0.04146347  0.06637115     0.16600
H933        H  0.66729863  0.05558894  0.43435335     0.16600
H934        H  0.70750599  0.04709767  0.37723649     0.16600
H935        H  0.69496383  0.02876066  0.13258080     0.14800
H936        H  0.65574493  0.03486305  0.07829974     0.14800
H937        H  0.85295095  0.01649436  0.42045659     0.14800
H938        H  0.81285137  0.01717145  0.36675717     0.14800
H939        H  0.77079082  0.99077641  0.02479237     0.28100
H940        H  0.73174460  0.99494189  0.47341787     0.28100
N941        N  0.78043529  0.99286107  0.29240245    -0.34700
N942        N  0.78218249  0.99178799  0.20442275    -0.55200
N943        N  0.71938783  0.99538352  0.20545942    -0.34700
N944        N  0.71765762  0.99456260  0.29355477    -0.55200
C945        C  0.80633259  0.97905760  0.28264174     0.28900
C946        C  0.77325055  0.98519074  0.32950554     0.28900
C947        C  0.72555480  0.98882312  0.16715573     0.28900
C948        C  0.69140414  0.98471483  0.21376250     0.28900
C949        C  0.81106310  0.98577634  0.21126719     0.37500
C950        C  0.77949416  0.99117582  0.16517256     0.37500
C951        C  0.72063913  0.99503797  0.33295138     0.37500
C952        C  0.68806041  0.99142632  0.28663331     0.37500
C953        C  0.81510734  0.96163750  0.31297805    -0.20000
C954        C  0.79347056  0.96451775  0.34202236    -0.20000
C955        C  0.70197597  0.97220125  0.15196031    -0.20000
C956        C  0.68009079  0.97051375  0.18086629    -0.20000
C957        C  0.82648912  0.97958971  0.17664963    -0.21000
C958        C  0.80618032  0.98156839  0.14773506    -0.21000
C959        C  0.69278923  0.98967254  0.35054600    -0.21000
C960        C  0.67221034  0.98856027  0.32160607    -0.21000
C961        C  0.82338700  0.98318767  0.24821583    -0.16400
C962        C  0.74882651  0.99669011  0.35201346    -0.16400
C963        C  0.67502938  0.98830705  0.24950629    -0.16400
C964        C  0.75233168  0.99688267  0.14597243    -0.16400
H965        H  0.83487727  0.94798338  0.31375087     0.16600
H966        H  0.79317387  0.95351687  0.36974293     0.16600
H967        H  0.70055042  0.96263455  0.12283860     0.16600
H968        H  0.65844898  0.95951628  0.17822567     0.16600
H969        H  0.84939720  0.97225169  0.17290792     0.14800
H970        H  0.81050816  0.97507836  0.11765019     0.14800
H971        H  0.68767701  0.98500626  0.38072060     0.14800
H972        H  0.64846487  0.98404698  0.32574493     0.14800
H973        H  0.77035064  0.00929956  0.27640062     0.28100
H974        H  0.73208266  0.00914633  0.22377310     0.28100
C975        C  0.61531480  0.98955755  0.24735712    -0.11300
C976        C  0.64236938  0.98784834  0.24800259    -0.12900
C977        C  0.85559498  0.98438010  0.25110170    -0.11300
C978        C  0.88219116  0.98845036  0.25363013    -0.12900
C979        C  0.64757161  0.02304239  0.00080125    -0.11300
C980        C  0.62083751  0.01888838  0.00096609    -0.12900
C981        C  0.88740057  0.00931081  0.99904809    -0.11300
C982        C  0.86035750  0.01097948  0.99780616    -0.12900
C983        C  0.47920325  0.35456687  0.25179804    -0.11300
C984        C  0.48324714  0.38128676  0.25195748    -0.12900
C985        C  0.99162349  0.14176824  0.24939055    -0.11300
C986        C  0.49330082  0.11470426  0.25016526    -0.12900
C987        C  0.51340892  0.35975460  0.99825763    -0.11300
C988        C  0.51172564  0.38682225  0.99759631    -0.12900
C989        C  0.51683082  0.14665671  0.50345631    -0.11300
C990        C  0.51293293  0.12003390  0.50561120    -0.12900
N991        N  0.50827507  0.22185025  0.54395486    -0.34700
N992        N  0.50656219  0.28460212  0.54458450    -0.55200
N993        N  0.00641661  0.28262656  0.95645829    -0.34700
N994        N  0.00962477  0.21985054  0.95594788    -0.55200
C995        C  0.51613003  0.22922232  0.58082905     0.28900
C996        C  0.02215400  0.19603720  0.53427260     0.28900
C997        C  0.51724594  0.31051483  0.96474194     0.28900
C998        C  0.01358862  0.27624017  0.91837480     0.28900
C999        C  0.50580413  0.28170132  0.58401412     0.37500
C1000       C  0.50944529  0.31419074  0.53738239     0.37500
C1001       C  0.01520733  0.19093174  0.96310657     0.37500
C1002       C  0.01033869  0.22239098  0.91667000     0.37500
C1003       C  0.53705055  0.20922512  0.59326304    -0.20000
C1004       C  0.03983191  0.18750531  0.56443133    -0.20000
C1005       C  0.53225185  0.32151767  0.93208143    -0.20000
C1006       C  0.03079391  0.29955116  0.90328793    -0.20000
C1007       C  0.51069906  0.30964412  0.60136421    -0.21000
C1008       C  0.51180852  0.33015326  0.57222098    -0.21000
C1009       C  0.02113169  0.17527764  0.92864401    -0.21000
C1010       C  0.01952468  0.19551081  0.89950605    -0.21000
C1011       C  0.50445786  0.25353154  0.60327775    -0.16400
C1012       C  0.01794729  0.17881809  0.00017341    -0.16400
C1013       C  0.00528695  0.24960851  0.89723398    -0.16400
C1014       C  0.51301299  0.32709736  0.50014327    -0.16400
H1015       H  0.54817843  0.20969352  0.62083324     0.16600
H1016       H  0.05361794  0.16783312  0.56525189     0.16600
H1017       H  0.54351024  0.34303812  0.92944478     0.16600
H1018       H  0.04080125  0.30078431  0.87431521     0.16600
H1019       H  0.51522188  0.31489461  0.63147825     0.14800
H1020       H  0.51610798  0.35392936  0.57614301     0.14800
H1021       H  0.02818814  0.15227719  0.92514270     0.14800
H1022       H  0.02609808  0.19100699  0.86947937     0.14800
H1023       H  0.49165111  0.23176216  0.52809053     0.28100
H1024       H  0.99215513  0.27015858  0.97460244     0.28100
N1025       N  0.99765739  0.21810402  0.79355087    -0.34700
N1026       N  0.98983860  0.28058334  0.79573262    -0.55200
N1027       N  0.99106079  0.28063539  0.70779571    -0.34700
N1028       N  0.99621760  0.21798450  0.70539586    -0.55200
C1029       C  0.98988423  0.22374255  0.83161460     0.28900
C1030       C  0.98704784  0.19030652  0.78431127     0.28900
C1031       C  0.97641475  0.30597927  0.71795305     0.28900
C1032       C  0.98459070  0.27416649  0.67013705     0.28900
C1033       C  0.99028908  0.27745759  0.83492302     0.37500
C1034       C  0.98256658  0.30929613  0.78972384     0.37500
C1035       C  0.99370862  0.18819900  0.71164770     0.37500
C1036       C  0.99552386  0.22163886  0.66616989     0.37500
C1037       C  0.97229772  0.20025242  0.84543907    -0.20000
C1038       C  0.97157365  0.17869065  0.81621404    -0.20000
C1039       C  0.95968007  0.31513245  0.68720077    -0.20000
C1040       C  0.96388053  0.29430991  0.65751143    -0.20000
C1041       C  0.98026940  0.30357383  0.85328679    -0.21000
C1042       C  0.97667024  0.32404397  0.82487997    -0.21000
C1043       C  0.99003702  0.17292084  0.67656777    -0.21000
C1044       C  0.98987935  0.19403440  0.64826140    -0.21000
C1045       C  0.99713634  0.25029479  0.85343236    -0.16400
C1046       C  0.99137075  0.17447896  0.74843806    -0.16400
C1047       C  0.99662126  0.25006808  0.64748676    -0.16400
C1048       C  0.97915237  0.32224865  0.75320940    -0.16400
H1049       H  0.96144986  0.19868310  0.87388579     0.16600
H1050       H  0.96015158  0.15718659  0.81782702     0.16600
H1051       H  0.94553671  0.33455853  0.68658479     0.16600
H1052       H  0.95345240  0.29435787  0.62948083     0.16600
H1053       H  0.97460004  0.30739411  0.88373892     0.14800
H1054       H  0.96872740  0.34665892  0.82943696     0.14800
H1055       H  0.98561362  0.14921448  0.67210639     0.14800
H1056       H  0.98428409  0.18940145  0.61832875     0.14800
H1057       H  0.01182712  0.23119987  0.77602058     0.28100
H1058       H  0.00723333  0.27050723  0.72414750     0.28100
O1059       O  0.98856814  0.02181338  0.91762649    -0.76600
C1060       C  0.91964501  0.00688458  0.50010803     0.84500
O1061       O  0.52129414  0.07441202  0.53377130    -0.77700
O1062       O  0.98194940  0.48147933  0.58710504    -0.79200
O1063       O  0.52961112  0.43465859  0.98113213    -0.79000
O1064       O  0.52421480  0.48696609  0.91423016    -0.77600
Zn1065     Zn  0.98070137  0.03161180  0.97297249     1.55700
O1066       O  0.98633986  0.43107246  0.51500622    -0.79000
Cd1067     Cd  0.53363103  0.48038355  0.97077158     1.59700
Cd1068     Cd  0.52813263  0.02950948  0.53853184     1.59600
O1069       O  0.57762859  0.49486778  0.97801821    -0.79000
O1070       O  0.00409999  0.00445453  0.50224702    -1.89500
Cd1071     Cd  0.97587011  0.47575466  0.52857481     1.59900
O1072       O  0.57354126  0.02654570  0.52877869    -0.78900
O1073       O  0.93104389  0.48505378  0.51747421    -0.77600
C1074       C  0.50860324  0.08830876  0.50725666     0.85000
C1075       C  0.00589311  0.00420152  0.89862831     0.84600
O1076       O  0.93589132  0.02673328  0.98334103    -0.76500
C1077       C  0.50906556  0.41908680  0.49783441     0.85400
O1078       O  0.99304807  0.07490932  0.98161348    -0.76600
C1079       C  0.58914863  0.01305146  0.50265935     0.85600
C1080       C  0.49934074  0.99809334  0.60725501     0.85900
O1081       O  0.51783816  0.01698064  0.59306250    -0.79100
O1082       O  0.98083944  0.01362196  0.66759562    -0.76600
C1083       C  0.91385724  0.99300356  0.75606815     0.84500
O1084       O  0.51754611  0.07075556  0.76778766    -0.77700
O1085       O  0.98436036  0.48476165  0.84333867    -0.79200
O1086       O  0.50706837  0.42442429  0.72828991    -0.79000
O1087       O  0.51505176  0.47743446  0.66412211    -0.77600
Zn1088     Zn  0.97093298  0.02150699  0.72288708     1.55700
O1089       O  0.97591146  0.42847578  0.77978255    -0.79000
Cd1090     Cd  0.52168615  0.46825145  0.72071310     1.59700
Cd1091     Cd  0.52663590  0.02579644  0.77844752     1.59600
O1092       O  0.56740792  0.47201393  0.73091471    -0.79000
O1093       O  0.99779532  0.99783626  0.75224718    -1.89500
Cd1094     Cd  0.97244435  0.47390576  0.78868939     1.59900
O1095       O  0.57122357  0.01511058  0.76470639    -0.78900
O1096       O  0.92747400  0.48012785  0.78266948    -0.77600
C1097       C  0.49577308  0.08239723  0.75056069     0.85000
C1098       C  0.99807476  0.99595960  0.64854788     0.84600
O1099       O  0.92753716  0.00904971  0.73097610    -0.76500
C1100       C  0.48917949  0.41290885  0.75341282     0.85400
O1101       O  0.97594909  0.06632409  0.73352768    -0.76600
C1102       C  0.58306395  0.99234968  0.74760395     0.85600
C1103       C  0.50370418  0.50282112  0.85729628     0.85900
O1104       O  0.52088053  0.01960348  0.83694962    -0.79100
N1105       N  0.78398577  0.00470456  0.54228295    -0.34700
N1106       N  0.72162005  0.01293057  0.54457706    -0.55200
N1107       N  0.72154776  0.01079826  0.95660679    -0.34700
N1108       N  0.78419448  0.00542569  0.95404404    -0.55200
C1109       C  0.77843837  0.01225255  0.58041024     0.28900
C1110       C  0.81187229  0.01510510  0.53293048     0.28900
C1111       C  0.69611943  0.02544441  0.96650168     0.28900
C1112       C  0.72795434  0.01669869  0.91866717     0.28900
C1113       C  0.72473742  0.01263170  0.58377221     0.37500
C1114       C  0.69297001  0.02044044  0.53859968     0.37500
C1115       C  0.81396641  0.00825612  0.96019081     0.37500
C1116       C  0.78058683  0.00584868  0.91479831     0.37500
C1117       C  0.80213825  0.02940398  0.59426393    -0.17600
C1118       C  0.82367368  0.03017787  0.56488608    -0.20000
C1119       C  0.68681517  0.04157490  0.93524787    -0.20000
C1120       C  0.70763454  0.03703427  0.90553247    -0.20000
C1121       C  0.69874525  0.02306998  0.60214539    -0.21000
C1122       C  0.67831276  0.02677167  0.57376244    -0.21000
C1123       C  0.82927172  0.01183217  0.92499912    -0.21000
C1124       C  0.80820021  0.01161053  0.89673322    -0.21000
C1125       C  0.75175293  0.00527124  0.60223889    -0.16400
C1126       C  0.82764928  0.01087371  0.49694796    -0.16400
C1127       C  0.75216949  0.00455413  0.89618693    -0.16400
C1128       C  0.67990973  0.02326628  0.50206095    -0.16400
H1129       H  0.80383030  0.03998074  0.62278543     0.16600
H1130       H  0.84530242  0.04135519  0.56646231     0.16600
H1131       H  0.66731226  0.05559279  0.93432967     0.16600
H1132       H  0.70750496  0.04705619  0.87718918     0.16600
H1133       H  0.69496606  0.02873846  0.63260102     0.14800
H1134       H  0.65573875  0.03487442  0.57831109     0.14800
H1135       H  0.85295602  0.01645162  0.92040140     0.14800
H1136       H  0.81285938  0.01710679  0.86671235     0.14800
H1137       H  0.77076266  0.99078033  0.52478595     0.28100
H1138       H  0.73174503  0.99494328  0.97339647     0.28100
N1139       N  0.78041772  0.99277643  0.79239154    -0.34700
N1140       N  0.78215151  0.99167518  0.70442606    -0.55200
N1141       N  0.71935219  0.99530882  0.70546821    -0.34700
N1142       N  0.71763492  0.99450569  0.79355665    -0.55200
C1143       C  0.80631107  0.97896320  0.78263898     0.28900
C1144       C  0.77323154  0.98512474  0.82949921     0.28900
C1145       C  0.72551079  0.98876207  0.66715956     0.28900
C1146       C  0.69135950  0.98465884  0.71376835     0.28900
C1147       C  0.81103121  0.98564890  0.71126178     0.37500
C1148       C  0.77945387  0.99105759  0.66517808     0.37500
C1149       C  0.72062444  0.99498923  0.83295105     0.37500
C1150       C  0.68803584  0.99136153  0.78664595     0.37500
C1151       C  0.81507976  0.96155183  0.81298708    -0.20000
C1152       C  0.79344284  0.96445162  0.84202886    -0.20000
C1153       C  0.70191303  0.97217188  0.65195377    -0.20000
C1154       C  0.68002823  0.97048681  0.68085907    -0.20000
C1155       C  0.82644590  0.97944185  0.67664250    -0.21000
C1156       C  0.80612941  0.98142794  0.64773514    -0.21000
C1157       C  0.69277716  0.98962442  0.85055574    -0.21000
C1158       C  0.67219182  0.98849887  0.82162250    -0.21000
C1159       C  0.82336411  0.98307737  0.74820849    -0.16400
C1160       C  0.74881567  0.99664434  0.85200250    -0.16400
C1161       C  0.67499541  0.98823521  0.74952439    -0.16400
C1162       C  0.75229720  0.99680210  0.64598237    -0.16400
H1163       H  0.83484808  0.94789657  0.81377588     0.16600
H1164       H  0.79313466  0.95346192  0.86975697     0.16600
H1165       H  0.70047500  0.96261820  0.62282678     0.16600
H1166       H  0.65837600  0.95951241  0.67820149     0.16600
H1167       H  0.84934937  0.97208934  0.67289929     0.14800
H1168       H  0.81044513  0.97494396  0.61764591     0.14800
H1169       H  0.68767125  0.98496905  0.88073504     0.14800
H1170       H  0.64844845  0.98397241  0.82576258     0.14800
H1171       H  0.77034179  0.00921991  0.77638607     0.28100
H1172       H  0.73206466  0.00904865  0.72379033     0.28100
C1173       C  0.61527912  0.98946069  0.74739019    -0.11300
C1174       C  0.64233408  0.98775869  0.74803605    -0.12900
C1175       C  0.85557409  0.98428325  0.75109262    -0.11300
C1176       C  0.88216905  0.98837030  0.75363142    -0.12900
C1177       C  0.64755399  0.02302607  0.50081886    -0.11300
C1178       C  0.62081826  0.01887834  0.50097635    -0.12900
C1179       C  0.88739647  0.00926591  0.49907194    -0.11300
C1180       C  0.86035294  0.01093925  0.49784084    -0.12900
C1181       C  0.47933912  0.35456202  0.75177981    -0.11300
C1182       C  0.48337634  0.38128299  0.75193395    -0.12900
C1183       C  0.99144913  0.14175817  0.74939493    -0.11300
C1184       C  0.49334137  0.11469138  0.75015905    -0.12900
C1185       C  0.51342952  0.35975941  0.49826455    -0.11300
C1186       C  0.51174695  0.38682780  0.49760402    -0.12900
C1187       C  0.51682598  0.14666179  0.00350858    -0.11300
C1188       C  0.51292512  0.12003841  0.00566182    -0.12900
N1189       N  0.50831072  0.72184617  0.04390374    -0.34700
N1190       N  0.50662642  0.78459717  0.04453482    -0.55200
N1191       N  0.00637540  0.78263316  0.45643893    -0.34700
N1192       N  0.00960204  0.71985214  0.45592042    -0.55200
C1193       C  0.51617395  0.72921180  0.08077604     0.28900
C1194       C  0.02216816  0.69603695  0.03425313     0.28900
C1195       C  0.51720810  0.81053021  0.46470203     0.28900
C1196       C  0.01356552  0.77624854  0.41835935     0.28900
C1197       C  0.50587360  0.78169532  0.08396435     0.37500
C1198       C  0.50951029  0.81418642  0.03733686     0.37500
C1199       C  0.01519409  0.69093372  0.46307226     0.37500
C1200       C  0.01033884  0.72240033  0.41664541     0.37500
C1201       C  0.53708772  0.70920493  0.09320172    -0.20000
C1202       C  0.03985635  0.68751055  0.06440313    -0.20000
C1203       C  0.53219654  0.82154687  0.43203813    -0.20000
C1204       C  0.03077288  0.79956314  0.40328318    -0.20000
C1205       C  0.51077403  0.80963626  0.10131688    -0.21000
C1206       C  0.51188178  0.83014685  0.07217684    -0.21000
C1207       C  0.02114641  0.67528619  0.42861106    -0.21000
C1208       C  0.01954642  0.69552744  0.39948186    -0.21000
C1209       C  0.50451801  0.75352612  0.10322769    -0.16400
C1210       C  0.01790984  0.67881338  0.50013713    -0.16400
C1211       C  0.00527777  0.74961537  0.39721334    -0.16400
C1212       C  0.51306200  0.82709915  0.00009939    -0.16400
H1213       H  0.54822025  0.70966703  0.12076832     0.16600
H1214       H  0.05365208  0.66784533  0.06520885     0.16600
H1215       H  0.54344697  0.84307149  0.42940792     0.16600
H1216       H  0.04079090  0.80080266  0.37431648     0.16600
H1217       H  0.51529718  0.81488447  0.13143154     0.14800
H1218       H  0.51618040  0.85392299  0.07610164     0.14800
H1219       H  0.02822089  0.65229083  0.42510846     0.14800
H1220       H  0.02613387  0.69103396  0.36945839     0.14800
H1221       H  0.49169186  0.73176947  0.02804206     0.28100
H1222       H  0.99213646  0.77015092  0.47458484     0.28100
N1223       N  0.99771253  0.71810714  0.29353084    -0.34700
N1224       N  0.98986068  0.78058688  0.29571430    -0.55200
N1225       N  0.99111855  0.78063971  0.20778358    -0.34700
N1226       N  0.99630191  0.71798568  0.20537863    -0.55200
C1227       C  0.98991056  0.72374356  0.33158531     0.28900
C1228       C  0.98712589  0.69030134  0.28428588     0.28900
C1229       C  0.97646485  0.80598145  0.21793910     0.28900
C1230       C  0.98463549  0.77416731  0.17012846     0.28900
C1231       C  0.99028990  0.77745708  0.33490199     0.37500
C1232       C  0.98259706  0.80930150  0.28970744     0.37500
C1233       C  0.99380124  0.68819956  0.21162856     0.37500
C1234       C  0.99558817  0.72164216  0.16615461     0.37500
C1235       C  0.97233063  0.70024403  0.34539649    -0.20000
C1236       C  0.97163842  0.67867857  0.31617529    -0.20000
C1237       C  0.95971218  0.81512662  0.18719522    -0.20000
C1238       C  0.96390686  0.79430105  0.15751067    -0.20000
C1239       C  0.98026105  0.80356971  0.35326332    -0.21000
C1240       C  0.97667952  0.82404817  0.32485921    -0.21000
C1241       C  0.99011549  0.67292359  0.17655212    -0.21000
C1242       C  0.98993623  0.69403896  0.14824706    -0.21000
C1243       C  0.99714018  0.75029783  0.35340975    -0.16400
C1244       C  0.99147263  0.67447574  0.24841614    -0.16400
C1245       C  0.99666819  0.75007223  0.14747378    -0.16400
C1246       C  0.97920238  0.82225344  0.25319251    -0.16400
H1247       H  0.96146605  0.69867186  0.37383267     0.16600
H1248       H  0.96021611  0.65717378  0.31777749     0.16600
H1249       H  0.94555389  0.83454284  0.18658347     0.16600
H1250       H  0.95346523  0.79434791  0.12948788     0.16600
H1251       H  0.97458673  0.80737919  0.38371548     0.14800
H1252       H  0.96873043  0.84666292  0.32940437     0.14800
H1253       H  0.98569320  0.64921619  0.17210259     0.14800
H1254       H  0.98431815  0.68941343  0.11831997     0.14800
H1255       H  0.01187448  0.73121704  0.27601024     0.28100
H1256       H  0.00729779  0.77052058  0.22412648     0.28100
O1257       O  0.98854472  0.52177069  0.41760925    -0.76600
C1258       C  0.91964976  0.50688193  0.00007675     0.84500
O1259       O  0.52130541  0.57441332  0.03372761    -0.77700
O1260       O  0.98195328  0.98148475  0.08711465    -0.79200
O1261       O  0.52962669  0.93466382  0.48118103    -0.79000
O1262       O  0.52420078  0.98693646  0.41425673    -0.77600
Zn1263     Zn  0.98068116  0.53159088  0.47294796     1.55700
O1264       O  0.98632686  0.93107695  0.01501581    -0.79000
Cd1265     Cd  0.53362778  0.98038416  0.47080031     1.59700
Cd1266     Cd  0.52813308  0.52950691  0.03850495     1.59600
O1267       O  0.57762035  0.99488757  0.47802280    -0.79000
O1268       O  0.00410859  0.50444274  0.00223912    -1.89500
Cd1269     Cd  0.97587652  0.97576267  0.02858569     1.59900
O1270       O  0.57354408  0.52653129  0.02876843    -0.78900
O1271       O  0.93105652  0.98507203  0.01748079    -0.77600
C1272       C  0.50861445  0.58830911  0.00721140     0.85000
C1273       C  0.00589804  0.50418256  0.39861851     0.84600
O1274       O  0.93587315  0.52671397  0.48333212    -0.76500
C1275       C  0.50910921  0.91908770  0.99784962     0.85400
O1276       O  0.99302967  0.57489329  0.48155046    -0.76600
C1277       C  0.58915513  0.51303210  0.00265678     0.85600
C1278       C  0.49932036  0.49809344  0.10722047     0.85900
O1279       O  0.51782189  0.51697927  0.09303259    -0.79100
O1280       O  0.98084441  0.51360160  0.16759385    -0.76600
C1281       C  0.91387456  0.49304153  0.25608458     0.84500
O1282       O  0.51761596  0.57074341  0.26774392    -0.77700
O1283       O  0.98436173  0.98476213  0.34333629    -0.79200
O1284       O  0.50710456  0.92441976  0.22829276    -0.79000
O1285       O  0.51509250  0.97742824  0.16415211    -0.77600
Zn1286     Zn  0.97095964  0.52150863  0.22288639     1.55700
O1287       O  0.97593302  0.92847678  0.27977754    -0.79000
Cd1288     Cd  0.52171938  0.96824765  0.22073987     1.59700
Cd1289     Cd  0.52668088  0.52577786  0.27840469     1.59600
O1290       O  0.56743721  0.97200893  0.23095128    -0.79000
O1291       O  0.99781123  0.49781754  0.25223903    -1.89500
Cd1292     Cd  0.97245965  0.97390602  0.28868225     1.59900
O1293       O  0.57125674  0.51507135  0.26464338    -0.78900
O1294       O  0.92749215  0.98012678  0.28265282    -0.77600
C1295       C  0.49584668  0.58239456  0.25052003     0.85000
C1296       C  0.99806553  0.49592765  0.14854235     0.84600
O1297       O  0.92755641  0.50908988  0.23099709    -0.76500
C1298       C  0.48920143  0.91290239  0.25339570     0.85400
O1299       O  0.97601630  0.56632656  0.23350798    -0.76600
C1300       C  0.58308474  0.49230752  0.24753444     0.85600
C1301       C  0.50371306  0.00280317  0.35731362     0.85900
O1302       O  0.52093553  0.51958320  0.33691237    -0.79100
N1303       N  0.78399799  0.50467517  0.04227078    -0.34700
N1304       N  0.72163308  0.51289381  0.04457867    -0.55200
N1305       N  0.72151775  0.51080110  0.45662119    -0.34700
N1306       N  0.78417164  0.50544706  0.45406324    -0.55200
C1307       C  0.77845646  0.51222423  0.08039899     0.28900
C1308       C  0.81187944  0.51508031  0.03290381     0.28900
C1309       C  0.69608811  0.52544642  0.46651684     0.28900
C1310       C  0.72792486  0.51670330  0.41868161     0.28900
C1311       C  0.72475205  0.51258787  0.08377509     0.37500
C1312       C  0.69298117  0.52039909  0.03860596     0.37500
C1313       C  0.81394410  0.50828549  0.46020844     0.37500
C1314       C  0.78056363  0.50587849  0.41481793     0.37500
C1315       C  0.80215587  0.52938372  0.09423770    -0.17600
C1316       C  0.82368337  0.53015792  0.06485215    -0.20000
C1317       C  0.68678335  0.54157727  0.43526192    -0.20000
C1318       C  0.70760424  0.53704039  0.40554952    -0.20000
C1319       C  0.69875512  0.52301266  0.10215516    -0.21000
C1320       C  0.67832487  0.52671528  0.07377392    -0.21000
C1321       C  0.82924731  0.51187807  0.42501893    -0.21000
C1322       C  0.80817446  0.51165849  0.39675564    -0.21000
C1323       C  0.75177526  0.50524129  0.10223769    -0.16400
C1324       C  0.82765090  0.51084484  0.99691771    -0.16400
C1325       C  0.75214720  0.50457051  0.39620301    -0.16400
C1326       C  0.67991837  0.52323633  0.00206925    -0.16400
H1327       H  0.80385783  0.53996724  0.12275362     0.16600
H1328       H  0.84531152  0.54133522  0.06642380     0.16600
H1329       H  0.66727789  0.55559052  0.43433249     0.16600
H1330       H  0.70747621  0.54707483  0.37721405     0.16600
H1331       H  0.69496788  0.52868404  0.13260922     0.14800
H1332       H  0.65574974  0.53480997  0.07833488     0.14800
H1333       H  0.85293030  0.51650657  0.42042328     0.14800
H1334       H  0.81282936  0.51716754  0.36673800     0.14800
H1335       H  0.77077529  0.49074059  0.02478048     0.28100
H1336       H  0.73172453  0.49495462  0.47341753     0.28100
N1337       N  0.78041837  0.49281610  0.29241504    -0.34700
N1338       N  0.78217499  0.49170961  0.20444286    -0.55200
N1339       N  0.71937602  0.49528507  0.20546309    -0.34700
N1340       N  0.71763583  0.49450216  0.29355498    -0.55200
C1341       C  0.80632163  0.47901814  0.28267042     0.28900
C1342       C  0.77322662  0.48515545  0.32951819     0.28900
C1343       C  0.72554807  0.48872750  0.16716099     0.28900
C1344       C  0.69139160  0.48461377  0.21376025     0.28900
C1345       C  0.81105571  0.48570284  0.21129342     0.37500
C1346       C  0.77948614  0.49107441  0.16519300     0.37500
C1347       C  0.72061451  0.49500090  0.33295189     0.37500
C1348       C  0.68803964  0.49135274  0.28663072     0.37500
C1349       C  0.81509320  0.46160870  0.31301864    -0.20000
C1350       C  0.79344766  0.46449183  0.34205150    -0.20000
C1351       C  0.70196989  0.47210923  0.15195730    -0.20000
C1352       C  0.68008136  0.47041526  0.18085716    -0.20000
C1353       C  0.82647984  0.47949137  0.17668197    -0.21000
C1354       C  0.80616930  0.48145191  0.14776519    -0.21000
C1355       C  0.69276309  0.48964210  0.35054618    -0.21000
C1356       C  0.67218669  0.48850552  0.32160341    -0.21000
C1357       C  0.82337997  0.48314284  0.24824654    -0.16400
C1358       C  0.74880126  0.49666288  0.35201551    -0.16400
C1359       C  0.67501303  0.48820208  0.24950252    -0.16400
C1360       C  0.75232771  0.49678759  0.14598583    -0.16400
H1361       H  0.83486757  0.44796262  0.31381198     0.16600
H1362       H  0.79314531  0.45350019  0.36977805     0.16600
H1363       H  0.70054580  0.46254828  0.12283280     0.16600
H1364       H  0.65844083  0.45941711  0.17820148     0.16600
H1365       H  0.84938660  0.47214781  0.17294887     0.14800
H1366       H  0.81049438  0.47495162  0.11768313     0.14800
H1367       H  0.68764761  0.48499402  0.38072474     0.14800
H1368       H  0.64844295  0.48398101  0.32574064     0.14800
H1369       H  0.77033432  0.50925130  0.27640369     0.28100
H1370       H  0.73206710  0.50905494  0.22377578     0.28100
C1371       C  0.61529897  0.48940769  0.24732132    -0.11300
C1372       C  0.64235350  0.48771198  0.24798903    -0.12900
C1373       C  0.85558800  0.48435112  0.25113797    -0.11300
C1374       C  0.88218389  0.48843122  0.25366478    -0.12900
C1375       C  0.64756303  0.52300195  0.00082918    -0.11300
C1376       C  0.62082695  0.51885478  0.00098563    -0.12900
C1377       C  0.88740024  0.50926051  0.99903139    -0.11300
C1378       C  0.86035542  0.51092332  0.99780163    -0.12900
C1379       C  0.47935338  0.85455919  0.25172746    -0.11300
C1380       C  0.48339257  0.88127907  0.25189895    -0.12900
C1381       C  0.99155790  0.64175311  0.24936881    -0.11300
C1382       C  0.49342893  0.61468943  0.25011115    -0.12900
C1383       C  0.51348162  0.85976132  0.99823719    -0.11300
C1384       C  0.51179768  0.88682990  0.99759978    -0.12900
C1385       C  0.51680759  0.64665927  0.50339685    -0.11300
C1386       C  0.51290722  0.62003708  0.50554376    -0.12900
N1387       N  0.50823154  0.72184460  0.54391246    -0.34700
N1388       N  0.50650836  0.78459585  0.54454785    -0.55200
N1389       N  0.00636382  0.78263938  0.95645059    -0.34700
N1390       N  0.00958128  0.71985926  0.95593662    -0.55200
C1391       C  0.51607117  0.72921294  0.58079409     0.28900
C1392       C  0.02221901  0.69603474  0.53422420     0.28900
C1393       C  0.51725503  0.81053387  0.96467440     0.28900
C1394       C  0.01355963  0.77625724  0.91837581     0.28900
C1395       C  0.50575016  0.78169234  0.58397669     0.37500
C1396       C  0.50940287  0.81418415  0.53735221     0.37500
C1397       C  0.01517434  0.69094199  0.96309244     0.37500
C1398       C  0.01033814  0.72240814  0.91665932     0.37500
C1399       C  0.53698561  0.70921335  0.59323926    -0.20000
C1400       C  0.03992679  0.68751954  0.56436289    -0.20000
C1401       C  0.53220807  0.82155208  0.93198427    -0.20000
C1402       C  0.03076513  0.79957473  0.90331561    -0.20000
C1403       C  0.51065738  0.80963076  0.60133166    -0.21000
C1404       C  0.51177184  0.83014218  0.57219293    -0.21000
C1405       C  0.02114874  0.67529979  0.92863281    -0.21000
C1406       C  0.01956168  0.69553846  0.89950058    -0.21000
C1407       C  0.50439514  0.75352349  0.60323790    -0.16400
C1408       C  0.01787406  0.67881811  0.00015989    -0.16400
C1409       C  0.00528702  0.74962418  0.89721956    -0.16400
C1410       C  0.51298112  0.82709625  0.50011930    -0.16400
H1411       H  0.54810488  0.70967868  0.62081532     0.16600
H1412       H  0.05371920  0.66785168  0.56518231     0.16600
H1413       H  0.54345480  0.84307733  0.92933307     0.16600
H1414       H  0.04079654  0.80080796  0.87435762     0.16600
H1415       H  0.51518604  0.81487510  0.63144593     0.14800
H1416       H  0.51607891  0.85391669  0.57611756     0.14800
H1417       H  0.02821621  0.65230288  0.92512949     0.14800
H1418       H  0.02617298  0.69104556  0.86948389     0.14800
H1419       H  0.49161816  0.73176118  0.52803324     0.28100
H1420       H  0.99209738  0.77015199  0.97459441     0.28100
N1421       N  0.99776799  0.71811406  0.79352345    -0.34700
N1422       N  0.98992035  0.78059623  0.79569547    -0.55200
N1423       N  0.99117412  0.78064033  0.70775622    -0.34700
N1424       N  0.99636758  0.71798679  0.70536291    -0.55200
C1425       C  0.98995684  0.72375240  0.83157555     0.28900
C1426       C  0.98718056  0.69030971  0.78427397     0.28900
C1427       C  0.97652766  0.80598483  0.71790914     0.28900
C1428       C  0.98469175  0.77416177  0.67010356     0.28900
C1429       C  0.99033455  0.77746787  0.83488691     0.37500
C1430       C  0.98265180  0.80930783  0.78967796     0.37500
C1431       C  0.99387502  0.68820008  0.71161583     0.37500
C1432       C  0.99566016  0.72163933  0.66613684     0.37500
C1433       C  0.97237090  0.70025480  0.84537909    -0.20000
C1434       C  0.97168407  0.67868941  0.81615572    -0.20000
C1435       C  0.95978139  0.81512740  0.68716593    -0.20000
C1436       C  0.96397200  0.79429847  0.65748181    -0.20000
C1437       C  0.98029162  0.80357843  0.85323828    -0.21000
C1438       C  0.97672049  0.82405048  0.82482633    -0.21000
C1439       C  0.99020446  0.67291959  0.67653572    -0.21000
C1440       C  0.99002578  0.69403210  0.64822982    -0.21000
C1441       C  0.99717648  0.75030802  0.85340452    -0.16400
C1442       C  0.99153556  0.67448064  0.74840736    -0.16400
C1443       C  0.99672917  0.75006757  0.64745072    -0.16400
C1444       C  0.97926236  0.82225988  0.75316044    -0.16400
H1445       H  0.96150176  0.69868479  0.87381313     0.16600
H1446       H  0.96027152  0.65717927  0.81774989     0.16600
H1447       H  0.94563152  0.83454929  0.68656332     0.16600
H1448       H  0.95353387  0.79433981  0.62945665     0.16600
H1449       H  0.97458844  0.80739076  0.88368247     0.14800
H1450       H  0.96877553  0.84666549  0.82937033     0.14800
H1451       H  0.98578314  0.64921275  0.67207578     0.14800
H1452       H  0.98442529  0.68939578  0.61829962     0.14800
H1453       H  0.01195086  0.73121262  0.77601379     0.28100
H1454       H  0.00735293  0.77052017  0.72410396     0.28100
O1455       O  0.98854917  0.52178160  0.91760917    -0.76600
C1456       C  0.91963161  0.50690296  0.50009865     0.84500
O1457       O  0.52127591  0.57442452  0.53371513    -0.77700
O1458       O  0.98198190  0.98149064  0.58709923    -0.79200
O1459       O  0.52965331  0.93467756  0.98113831    -0.79000
O1460       O  0.52421116  0.98698458  0.91425442    -0.77600
Zn1461     Zn  0.98069127  0.53159211  0.97294790     1.55700
O1462       O  0.98637488  0.93107095  0.51500771    -0.79000
Cd1463     Cd  0.53364609  0.98040400  0.97078794     1.59700
Cd1464     Cd  0.52811392  0.52952676  0.53850399     1.59600
O1465       O  0.57763901  0.99490167  0.97800974    -0.79000
O1466       O  0.00408860  0.50444691  0.50225436    -1.89500
Cd1467     Cd  0.97589728  0.97575330  0.52857315     1.59900
O1468       O  0.57352522  0.52656724  0.52876967    -0.78900
O1469       O  0.93106807  0.98503904  0.51747799    -0.77600
C1470       C  0.50858074  0.58831324  0.50719769     0.85000
C1471       C  0.00589527  0.50419193  0.89860995     0.84600
O1472       O  0.93588384  0.52670503  0.98332373    -0.76500
C1473       C  0.50906413  0.91908407  0.49786850     0.85400
O1474       O  0.99302582  0.57489548  0.98156676    -0.76600
C1475       C  0.58914061  0.51306499  0.50266595     0.85600
C1476       C  0.49930914  0.49812557  0.60722971     0.85900
O1477       O  0.51780189  0.51701828  0.59303891    -0.79100
O1478       O  0.98083971  0.51361906  0.66761341    -0.76600
C1479       C  0.91385958  0.49304810  0.75607507     0.84500
O1480       O  0.51750722  0.57077650  0.76775720    -0.77700
O1481       O  0.98438421  0.98474983  0.84334623    -0.79200
O1482       O  0.50700974  0.92440804  0.72833084    -0.79000
O1483       O  0.51506710  0.97739739  0.66415729    -0.77600
Zn1484     Zn  0.97095461  0.52152131  0.72290396     1.55700
O1485       O  0.97594406  0.92848543  0.77974092    -0.79000
Cd1486     Cd  0.52167224  0.96821746  0.72075880     1.59700
Cd1487     Cd  0.52662284  0.52582603  0.77841847     1.59600
O1488       O  0.56739187  0.97193437  0.73098749    -0.79000
O1489       O  0.99779873  0.49781549  0.75224724    -1.89500
Cd1490     Cd  0.97245660  0.97391146  0.78868977     1.59900
O1491       O  0.57121640  0.51517702  0.76466648    -0.78900
O1492       O  0.92747798  0.98012111  0.78268985    -0.77600
C1493       C  0.49572167  0.58240434  0.75054200     0.85000
C1494       C  0.99804758  0.49593552  0.64855694     0.84600
O1495       O  0.92754661  0.50911167  0.73100895    -0.76500
C1496       C  0.48909801  0.91290820  0.75343903     0.85400
O1497       O  0.97602773  0.56633766  0.73352568    -0.76600
C1498       C  0.58306924  0.49243155  0.74754363     0.85600
C1499       C  0.50367938  0.00282722  0.85732900     0.85900
O1500       O  0.52088112  0.51962432  0.83692124    -0.79100
N1501       N  0.78398199  0.50476607  0.54227208    -0.34700
N1502       N  0.72161558  0.51298231  0.54457434    -0.55200
N1503       N  0.72153249  0.51074205  0.95662122    -0.34700
N1504       N  0.78418206  0.50536723  0.95405518    -0.55200
C1505       C  0.77843551  0.51233197  0.58039348     0.28900
C1506       C  0.81186295  0.51517195  0.53290658     0.28900
C1507       C  0.69611157  0.52539712  0.96652831     0.28900
C1508       C  0.72794156  0.51665330  0.91868518     0.28900
C1509       C  0.72473649  0.51269244  0.58376994     0.37500
C1510       C  0.69296380  0.52048523  0.53859937     0.37500
C1511       C  0.81395527  0.50819874  0.96019989     0.37500
C1512       C  0.78057324  0.50579533  0.91480893     0.37500
C1513       C  0.80212853  0.52950343  0.59422710    -0.17600
C1514       C  0.82366049  0.53026799  0.56484656    -0.20000
C1515       C  0.68681551  0.54154471  0.93528410    -0.20000
C1516       C  0.70763296  0.53700716  0.90556712    -0.20000
C1517       C  0.69874303  0.52312707  0.60214553    -0.21000
C1518       C  0.67830984  0.52681925  0.57376401    -0.21000
C1519       C  0.82925879  0.51177832  0.92500863    -0.21000
C1520       C  0.80818709  0.51156093  0.89674500    -0.21000
C1521       C  0.75175726  0.50534544  0.60223261    -0.16400
C1522       C  0.82763757  0.51092138  0.49692744    -0.16400
C1523       C  0.75215438  0.50451110  0.89619693    -0.16400
C1524       C  0.67989812  0.52329756  0.50206168    -0.16400
H1525       H  0.80382347  0.54009749  0.62273778     0.16600
H1526       H  0.84528632  0.54145067  0.56641601     0.16600
H1527       H  0.66731628  0.55556708  0.93436439     0.16600
H1528       H  0.70750971  0.54704942  0.87723632     0.16600
H1529       H  0.69496004  0.52880327  0.63259880     0.14800
H1530       H  0.65573385  0.53491352  0.57832090     0.14800
H1531       H  0.85294252  0.51640121  0.92041165     0.14800
H1532       H  0.81284713  0.51707205  0.86672927     0.14800
H1533       H  0.77076679  0.49081810  0.52479120     0.28100
H1534       H  0.73172820  0.49487860  0.97340454     0.28100
N1535       N  0.78040785  0.49280470  0.79239612    -0.34700
N1536       N  0.78216096  0.49176698  0.70442338    -0.55200
N1537       N  0.71936416  0.49537287  0.70546058    -0.34700
N1538       N  0.71762836  0.49452039  0.79354985    -0.55200
C1539       C  0.80630578  0.47900594  0.78262882     0.28900
C1540       C  0.77321544  0.48511802  0.82948869     0.28900
C1541       C  0.72552929  0.48882511  0.66715332     0.28900
C1542       C  0.69137279  0.48471613  0.71375256     0.28900
C1543       C  0.81104276  0.48575755  0.71126526     0.37500
C1544       C  0.77947141  0.49116230  0.66517418     0.37500
C1545       C  0.72061017  0.49498842  0.83294525     0.37500
C1546       C  0.68802901  0.49140853  0.78662738     0.37500
C1547       C  0.81507228  0.46156799  0.81295107    -0.20000
C1548       C  0.79342922  0.46443670  0.84199058    -0.20000
C1549       C  0.70194003  0.47222507  0.65194282    -0.20000
C1550       C  0.68005108  0.47053668  0.68084200    -0.20000
C1551       C  0.82646854  0.47957793  0.67664699    -0.21000
C1552       C  0.80615759  0.48155817  0.64773471    -0.21000
C1553       C  0.69275565  0.48964411  0.85053697    -0.21000
C1554       C  0.67217548  0.48855040  0.82159805    -0.21000
C1555       C  0.82336602  0.48315906  0.74821279    -0.16400
C1556       C  0.74879896  0.49662221  0.85200546    -0.16400
C1557       C  0.67499839  0.48830292  0.74949831    -0.16400
C1558       C  0.75231034  0.49688278  0.64597662    -0.16400
H1559       H  0.83484329  0.44791558  0.81372403     0.16600
H1560       H  0.79312399  0.45342590  0.86970349     0.16600
H1561       H  0.70050837  0.46267210  0.62281462     0.16600
H1562       H  0.65840357  0.45955317  0.67818020     0.16600
H1563       H  0.84937617  0.47223873  0.67290449     0.14800
H1564       H  0.81048471  0.47507438  0.61764793     0.14800
H1565       H  0.68763872  0.48498313  0.88071134     0.14800
H1566       H  0.64842772  0.48404756  0.82573453     0.14800
H1567       H  0.77033124  0.50926349  0.77641095     0.28100
H1568       H  0.73206064  0.50913246  0.72377710     0.28100
C1569       C  0.61528568  0.48955710  0.74732995    -0.11300
C1570       C  0.64233931  0.48784949  0.74798979    -0.12900
C1571       C  0.85557400  0.48436235  0.75110611    -0.11300
C1572       C  0.88216960  0.48843981  0.75364108    -0.12900
C1573       C  0.64754333  0.52305229  0.50082721    -0.11300
C1574       C  0.62080914  0.51889672  0.50099072    -0.12900
C1575       C  0.88738351  0.50929643  0.49905502    -0.11300
C1576       C  0.86034067  0.51097854  0.49781907    -0.12900
C1577       C  0.47922701  0.85456560  0.75175553    -0.11300
C1578       C  0.48326656  0.88128678  0.75194319    -0.12900
C1579       C  0.99161159  0.64175821  0.74936566    -0.11300
C1580       C  0.49328004  0.61469538  0.75012619    -0.12900
C1581       C  0.51340980  0.85975755  0.49826032    -0.11300
C1582       C  0.51173701  0.88682619  0.49762331    -0.12900
C1583       C  0.51684607  0.64665549  0.00338577    -0.11300
C1584       C  0.51294829  0.62003340  0.00555370    -0.12900
loop_ 
_geom_bond_atom_site_label_1 
_geom_bond_atom_site_label_2 
_geom_bond_distance 
_geom_bond_site_symmetry_2 
_ccdc_geom_bond_type 
N1           H33   1.044   1_455  S
N1            C5   1.357       .  A
N1          C798   1.349       .  A
N2            C9   1.364       .  A
N2           C10   1.354       .  A
N3           H34   1.043       .  S
N3            C8   1.364       .  A
N3          C799   1.356       .  A
N4           C11   1.349       .  A
N4           C12   1.357       .  A
C5           C13   1.386       .  A
C5           C21   1.415       .  A
C6          N793   1.349       .  A
C6           C14   1.385       .  A
C6          C220   1.403       .  A
C7          N795   1.356       .  A
C7           C15   1.387       .  A
C7          C222   1.419       .  A
C8           C23   1.429       .  A
C8           C16   1.386       .  A
C9           C21   1.436       .  A
C9           C17   1.388       .  A
C10          C24   1.421       .  A
C10          C18   1.385       .  A
C11          C19   1.383       .  A
C11          C22   1.406       .  A
C12          C20   1.388       .  A
C12          C23   1.426       .  A
C13         C806   1.375       .  A
C13          H25   1.082       .  S
C14         C805   1.375       .  A
C14          H26   1.083       .  S
C15         C808   1.377       .  A
C15          H27   1.082       .  S
C16         C807   1.377       .  A
C16          H28   1.082       .  S
C17          C18   1.373       .  A
C17          H29   1.080       .  S
C18          H30   1.082       .  S
C19          C20   1.369       .  A
C19          H31   1.083       .  S
C20          H32   1.080       .  S
C21         C849   1.561   1_455  S
C22         C204   1.403       .  A
C22         C989   1.443       .  S
C23          C55   1.561       .  S
C24         C205   1.419   1_554  A
C24         C195   1.462   1_554  S
N35          H67   1.044       .  S
N35          C40   1.356       .  A
N35          C39   1.363       .  A
N36          C43   1.359       .  A
N36          C44   1.350       .  A
N37          H68   1.043       .  S
N37          C42   1.358       .  A
N37          C41   1.350       .  A
N38          C45   1.355       .  A
N38          C46   1.364       .  A
C39          C47   1.386       .  A
C39          C55   1.426       .  A
C40          C56   1.417       .  A
C40          C48   1.387       .  A
C41          C49   1.385       .  A
C41          C58   1.406       .  A
C42          C57   1.417       .  A
C42          C50   1.386       .  A
C43          C55   1.425       .  A
C43          C51   1.388       .  A
C44          C58   1.408       .  A
C44          C52   1.383       .  A
C45          C53   1.384       .  A
C45          C56   1.419       .  A
C46          C54   1.388       .  A
C46          C57   1.437       .  A
C47          C48   1.376       .  A
C47          H59   1.082       .  S
C48          H60   1.082       .  S
C49          C50   1.376       .  A
C49          H61   1.083       .  S
C50          H62   1.082       .  S
C51          C52   1.368       .  A
C51          H63   1.080       .  S
C52          H64   1.083       .  S
C53          C54   1.372       .  A
C53          H65   1.082       .  S
C54          H66   1.080       .  S
C56         C193   1.463       .  S
C57         C813   1.561       .  S
C58         C983   1.445       .  S
O69          C85   1.269       .  A
O69         Zn75   1.966       .  S
C70         C189   1.447   1_554  S
C70         O284   1.274   1_554  A
C70         O479   1.277   1_545  A
O71          C84   1.267       .  A
O71         Cd78   2.045       .  S
O72        C1278   1.273       .  A
O72         Cd81   2.048       .  S
O73         C285   1.275       .  A
O73         Cd77   2.086       .  S
O74        C1273   1.271       .  A
O74         Cd77   2.030       .  S
Zn75         O86   2.032       .  S
Zn75         O88   2.021       .  S
Zn75        O278   1.933       .  S
O76         C879   1.277   1_554  A
O76         Cd81   2.096       .  S
Cd77         O79   2.079       .  S
Cd77       O1466   1.993       .  S
Cd78         O82   2.052       .  S
Cd78         O91   2.008       .  S
Cd78        O872   1.983       .  S
O79         C683   1.273       .  A
O80        Zn273   1.933   1_554  S
O80       Cd1463   1.993   1_544  S
O80        Cd870   1.983       .  S
O80        Cd477   1.997   1_545  S
Cd81         O83   2.099       .  S
Cd81        O476   1.997       .  S
O82          C89   1.268       .  A
O83         C466   1.277       .  A
C84         C396   1.430       .  S
C84        O1078   1.272   1_454  A
C85        C1301   1.427       .  S
C85        O1262   1.271   1_545  A
O86         C268   1.274       .  A
C87         C196   1.448       .  S
C87         O271   1.275       .  A
C87         O868   1.277   1_456  A
O88        C1074   1.272       .  A
C89         C188   1.434       .  S
C89         O673   1.273   1_544  A
C90         C900   1.426       .  S
C90          O91   1.268   1_665  A
C90        O1260   1.273       .  A
O92         C108   1.269   1_545  A
O92         Zn98   1.964       .  S
C93         C186   1.432       .  S
C93         O109   1.272   1_565  A
C93         O502   1.268       .  A
O94         C107   1.277   1_455  A
O94        Cd101   2.099       .  S
O95         C905   1.269       .  A
O95        Cd104   2.013       .  S
O96         C110   1.272   1_455  A
O96        Cd100   2.074       .  S
O97        C1296   1.270   1_455  A
O97        Cd100   2.029       .  S
Zn98        O109   2.021       .  S
Zn98        O111   2.037       .  S
Zn98        O103   1.933   1_545  S
O99         C902   1.268       .  A
O99        Cd104   2.053       .  S
Cd100       O102   2.085       .  S
Cd100      O1291   1.993   1_455  S
Cd101       O105   2.094       .  S
Cd101       O114   2.045       .  S
Cd101       O895   1.998   1_445  S
O102        C508   1.275       .  A
O103      Cd1288   1.993       .  S
O103       Cd893   1.998   1_565  S
O103       Cd500   1.984       .  S
Cd104       O106   2.049       .  S
Cd104       O499   1.984       .  S
O105        C112   1.277   1_545  A
O106        C489   1.268       .  A
C107        C194   1.449       .  S
C107        O903   1.274       .  A
C108        C882   1.426       .  S
C108       O1285   1.270       .  A
C110        C192   1.432       .  S
C110        O891   1.268       .  A
O111        C899   1.274       .  A
C112        C183   1.446       .  S
C112        O498   1.275       .  A
C113       C1273   1.427       .  S
C113        O887   1.269   1_455  A
C113        O510   1.272       .  A
O114        C509   1.272       .  A
N115        H147   1.043   1_545  S
N115        C120   1.355       .  A
N115        C119   1.363       .  A
N116        C123   1.359       .  A
N116        C124   1.351       .  A
N117        H148   1.043   1_545  S
N117        C122   1.359       .  A
N117        C121   1.351       .  A
N118        C125   1.356       .  A
N118        C126   1.364       .  A
C119        C127   1.386       .  A
C119        C135   1.425       .  A
C120        C136   1.416   1_554  A
C120        C128   1.387       .  A
C121        C129   1.385       .  A
C121        C336   1.407       .  A
C122        C137   1.419       .  A
C122        C130   1.387       .  A
C123        C135   1.426       .  A
C123        C131   1.388       .  A
C124        C138   1.409       .  A
C124        C132   1.384       .  A
C125        C133   1.384       .  A
C125        C334   1.420       .  A
C126        C134   1.388       .  A
C126        C137   1.437       .  A
C127        C128   1.375       .  A
C127        H139   1.082       .  S
C128        H140   1.082       .  S
C129        C130   1.375       .  A
C129        H141   1.083       .  S
C130        H142   1.082       .  S
C131        C132   1.370       .  A
C131        H143   1.081       .  S
C132        H144   1.083       .  S
C133        C134   1.372       .  A
C133        H145   1.082       .  S
C134        H146   1.080       .  S
C135        C172   1.561   1_545  S
C136        C323   1.420       .  A
C136        C190   1.462       .  S
C137        C170   1.562   1_545  S
C138        C319   1.407   1_554  A
C138        C187   1.447       .  S
N149        H181   1.044   1_565  S
N149        C154   1.357       .  A
N149        C153   1.350       .  A
N150        C157   1.350       .  A
N150        C158   1.358       .  A
N151        H182   1.043   1_565  S
N151        C156   1.356       .  A
N151        C155   1.364       .  A
N152        C159   1.364       .  A
N152        C160   1.354       .  A
C153        C161   1.385       .  A
C153        C169   1.404       .  A
C154        C170   1.415       .  A
C154        C162   1.386       .  A
C155        C163   1.386       .  A
C155        C172   1.428       .  A
C156        C171   1.419       .  A
C156        C164   1.388       .  A
C157        C169   1.407       .  A
C157        C165   1.383       .  A
C158        C172   1.427       .  A
C158        C166   1.388       .  A
C159        C167   1.387       .  A
C159        C170   1.436       .  A
C160        C168   1.385       .  A
C160        C171   1.421       .  A
C161        C162   1.375       .  A
C161        H173   1.083       .  S
C162        H174   1.082       .  S
C163        C164   1.376       .  A
C163        H175   1.082       .  S
C164        H176   1.082       .  S
C165        C166   1.370       .  A
C165        H177   1.083       .  S
C166        H178   1.081       .  S
C167        C168   1.373       .  A
C167        H179   1.080       .  S
C168        H180   1.082       .  S
C169        C185   1.445       .  S
C171        C184   1.461       .  S
C183        C184   1.213       .  T
C185        C186   1.204       .  T
C187        C188   1.205       .  T
C189        C190   1.213       .  T
C191        C850   1.445       .  S
C191        C192   1.204       .  T
C193        C986   1.214       .  T
C194        C985   1.214       .  T
C195        C196   1.214       .  T
C197        C814   1.443       .  S
C197        C198   1.203       .  T
C198        C282   1.430       .  S
N199        H231   1.044   1_455  S
N199        C996   1.349       .  A
N199        C203   1.357       .  A
N200        C207   1.364       .  A
N200        C208   1.354       .  A
N201        H232   1.043       .  S
N201        C206   1.364       .  A
N201        C997   1.356       .  A
N202        C209   1.349       .  A
N202        C210   1.357       .  A
C203        C211   1.386       .  A
C203        C219   1.415       .  A
C204        N991   1.349       .  A
C204        C212   1.385       .  A
C205        N993   1.356       .  A
C205        C213   1.387       .  A
C206        C221   1.429       .  A
C206        C214   1.386       .  A
C207        C219   1.436       .  A
C207        C215   1.388       .  A
C208        C222   1.421       .  A
C208        C216   1.385       .  A
C209        C217   1.383       .  A
C209        C220   1.406   1_556  A
C210        C218   1.388       .  A
C210        C221   1.426       .  A
C211       C1004   1.375       .  A
C211        H223   1.082       .  S
C212       C1003   1.375       .  A
C212        H224   1.083       .  S
C213       C1006   1.377       .  A
C213        H225   1.082       .  S
C214       C1005   1.377       .  A
C214        H226   1.082       .  S
C215        C216   1.373       .  A
C215        H227   1.080       .  S
C216        H228   1.082       .  S
C217        C218   1.370       .  A
C217        H229   1.083       .  S
C218        H230   1.080       .  S
C219       C1047   1.561   1_455  S
C220       C1187   1.443       .  S
C221        C253   1.561       .  S
C222        C393   1.462       .  S
N233        H265   1.044       .  S
N233        C238   1.356       .  A
N233        C237   1.363       .  A
N234        C241   1.359       .  A
N234        C242   1.350       .  A
N235        H266   1.043       .  S
N235        C240   1.358       .  A
N235        C239   1.350       .  A
N236        C243   1.355       .  A
N236        C244   1.364       .  A
C237        C245   1.386       .  A
C237        C253   1.426       .  A
C238        C254   1.417       .  A
C238        C246   1.387       .  A
C239        C247   1.385       .  A
C239        C256   1.406       .  A
C240        C255   1.417       .  A
C240        C248   1.386       .  A
C241        C253   1.425       .  A
C241        C249   1.388       .  A
C242        C256   1.408       .  A
C242        C250   1.383       .  A
C243        C251   1.384       .  A
C243        C254   1.419       .  A
C244        C252   1.388       .  A
C244        C255   1.437       .  A
C245        C246   1.376       .  A
C245        H257   1.082       .  S
C246        H258   1.082       .  S
C247        C248   1.375       .  A
C247        H259   1.083       .  S
C248        H260   1.082       .  S
C249        C250   1.368       .  A
C249        H261   1.080       .  S
C250        H262   1.083       .  S
C251        C252   1.372       .  A
C251        H263   1.082       .  S
C252        H264   1.080       .  S
C254        C391   1.463       .  S
C255       C1011   1.561       .  S
C256       C1181   1.445       .  S
O267        C283   1.269       .  A
O267       Zn273   1.966       .  S
C268        C387   1.447       .  S
C268        O677   1.277   1_545  A
O269        C282   1.267       .  A
O269       Cd276   2.045       .  S
O270       C1476   1.273       .  A
O270       Cd279   2.048       .  S
O271       Cd275   2.086       .  S
O272       C1471   1.271       .  A
O272       Cd275   2.030       .  S
Zn273       O284   2.032       .  S
Zn273       O286   2.021       .  S
O274       C1077   1.277       .  A
O274       Cd279   2.096       .  S
Cd275       O277   2.079       .  S
Cd275      O1268   1.993   1_556  S
Cd276       O280   2.052       .  S
Cd276       O289   2.008       .  S
Cd276      O1070   1.983       .  S
O277        C485   1.273   1_556  A
O278      Cd1265   1.993   1_545  S
O278      Cd1068   1.983       .  S
O278       Cd675   1.997   1_545  S
Cd279       O281   2.099       .  S
Cd279       O674   1.997       .  S
O280        C287   1.268       .  A
O281        C664   1.277       .  A
C282        O880   1.272   1_455  A
C283       C1499   1.427       .  S
C283       O1460   1.271   1_545  A
C285        C394   1.448       .  S
C285       O1066   1.277   1_455  A
O286        C876   1.272   1_556  A
C287        C386   1.434       .  S
C287        O475   1.273   1_545  A
C288       C1098   1.426       .  S
C288       O1458   1.273       .  A
C288        O289   1.268   1_665  A
O290        C306   1.269   1_545  A
O290       Zn296   1.964       .  S
C291        C384   1.431       .  S
C291        O307   1.272   1_565  A
C291        O700   1.268       .  A
O292        C305   1.277   1_455  A
O292       Cd299   2.098       .  S
O293       C1103   1.269       .  A
O293       Cd302   2.014       .  S
O294        C308   1.272   1_455  A
O294       Cd298   2.074       .  S
O295       C1494   1.270   1_455  A
O295       Cd298   2.029       .  S
Zn296       O307   2.021       .  S
Zn296       O309   2.037       .  S
Zn296       O301   1.933   1_545  S
O297       C1100   1.268       .  A
O297       Cd302   2.053       .  S
Cd298       O300   2.085       .  S
Cd298      O1489   1.993   1_455  S
Cd299       O303   2.093       .  S
Cd299       O312   2.045       .  S
Cd299      O1093   1.998   1_445  S
O300        C706   1.275       .  A
O301      Cd1486   1.993       .  S
O301      Cd1091   1.998   1_565  S
O301       Cd698   1.984       .  S
Cd302       O304   2.049       .  S
Cd302       O697   1.984       .  S
O303        C310   1.277   1_545  A
O304        C687   1.268       .  A
C305        C392   1.449       .  S
C305       O1101   1.274       .  A
C306       C1080   1.426       .  S
C306       O1483   1.270       .  A
C308        C390   1.432       .  S
C308       O1089   1.268       .  A
O309       C1097   1.274       .  A
C310        C381   1.446       .  S
C310        O696   1.275       .  A
C311       C1471   1.426       .  S
C311       O1085   1.269   1_455  A
C311        O708   1.272       .  A
O312        C707   1.272       .  A
N313        H345   1.043   1_545  S
N313        C318   1.355       .  A
N313        C317   1.363       .  A
N314        C321   1.359       .  A
N314        C322   1.351       .  A
N315        H346   1.043   1_545  S
N315        C320   1.359       .  A
N315        C319   1.351       .  A
N316        C323   1.356       .  A
N316        C324   1.364       .  A
C317        C325   1.386       .  A
C317        C333   1.425       .  A
C318        C334   1.416       .  A
C318        C326   1.387       .  A
C319        C327   1.385       .  A
C320        C335   1.419       .  A
C320        C328   1.386       .  A
C321        C333   1.426       .  A
C321        C329   1.388       .  A
C322        C336   1.409       .  A
C322        C330   1.384       .  A
C323        C331   1.384       .  A
C324        C332   1.388       .  A
C324        C335   1.437       .  A
C325        C326   1.375       .  A
C325        H337   1.082       .  S
C326        H338   1.082       .  S
C327        C328   1.375       .  A
C327        H339   1.083       .  S
C328        H340   1.082       .  S
C329        C330   1.370       .  A
C329        H341   1.081       .  S
C330        H342   1.083       .  S
C331        C332   1.372       .  A
C331        H343   1.082       .  S
C332        H344   1.080       .  S
C333        C370   1.561   1_545  S
C334        C388   1.462       .  S
C335        C368   1.562   1_545  S
C336        C385   1.447       .  S
N347        H379   1.044   1_565  S
N347        C352   1.357       .  A
N347        C351   1.350       .  A
N348        C355   1.350       .  A
N348        C356   1.358       .  A
N349        H380   1.043   1_565  S
N349        C354   1.356       .  A
N349        C353   1.364       .  A
N350        C357   1.365       .  A
N350        C358   1.354       .  A
C351        C359   1.385       .  A
C351        C367   1.403       .  A
C352        C368   1.415       .  A
C352        C360   1.386       .  A
C353        C361   1.386       .  A
C353        C370   1.428       .  A
C354        C369   1.419       .  A
C354        C362   1.388       .  A
C355        C367   1.407       .  A
C355        C363   1.382       .  A
C356        C370   1.427       .  A
C356        C364   1.388       .  A
C357        C365   1.387       .  A
C357        C368   1.436       .  A
C358        C366   1.385       .  A
C358        C369   1.421       .  A
C359        C360   1.375       .  A
C359        H371   1.082       .  S
C360        H372   1.082       .  S
C361        C362   1.376       .  A
C361        H373   1.082       .  S
C362        H374   1.082       .  S
C363        C364   1.370       .  A
C363        H375   1.083       .  S
C364        H376   1.080       .  S
C365        C366   1.373       .  A
C365        H377   1.080       .  S
C366        H378   1.082       .  S
C367        C383   1.445       .  S
C369        C382   1.461       .  S
C381        C382   1.213       .  T
C383        C384   1.204       .  T
C385        C386   1.205       .  T
C387        C388   1.213       .  T
C389       C1048   1.445       .  S
C389        C390   1.204       .  T
C391       C1184   1.214       .  T
C392       C1183   1.214       .  T
C393        C394   1.214       .  T
C395       C1012   1.443       .  S
C395        C396   1.203       .  T
N397        H429   1.045   1_455  S
N397       C1194   1.349       .  A
N397        C401   1.357       .  A
N398        C405   1.364       .  A
N398        C406   1.354       .  A
N399        H430   1.043       .  S
N399        C404   1.364       .  A
N399       C1195   1.356       .  A
N400        C407   1.349       .  A
N400        C408   1.357       .  A
C401        C409   1.386       .  A
C401        C417   1.415       .  A
C402       N1189   1.349       .  A
C402        C616   1.403       .  A
C402        C410   1.385       .  A
C403       N1191   1.356       .  A
C403        C411   1.387       .  A
C403        C618   1.419       .  A
C404        C419   1.429       .  A
C404        C412   1.386       .  A
C405        C417   1.436       .  A
C405        C413   1.388       .  A
C406        C420   1.421       .  A
C406        C414   1.385       .  A
C407        C415   1.383       .  A
C407        C418   1.406       .  A
C408        C416   1.388       .  A
C408        C419   1.426       .  A
C409       C1202   1.375       .  A
C409        H421   1.082       .  S
C410       C1201   1.375       .  A
C410        H422   1.083       .  S
C411       C1204   1.377       .  A
C411        H423   1.082       .  S
C412       C1203   1.377       .  A
C412        H424   1.082       .  S
C413        C414   1.373       .  A
C413        H425   1.080       .  S
C414        H426   1.082       .  S
C415        C416   1.369       .  A
C415        H427   1.083       .  S
C416        H428   1.080       .  S
C417       C1245   1.561   1_455  S
C418        C600   1.403       .  A
C418       C1385   1.443       .  S
C419        C451   1.561       .  S
C420        C601   1.419   1_554  A
C420        C591   1.462   1_554  S
N431        H463   1.044       .  S
N431        C436   1.356       .  A
N431        C435   1.363       .  A
N432        C439   1.359       .  A
N432        C440   1.350       .  A
N433        H464   1.043       .  S
N433        C438   1.358       .  A
N433        C437   1.350       .  A
N434        C441   1.355       .  A
N434        C442   1.364       .  A
C435        C443   1.386       .  A
C435        C451   1.426       .  A
C436        C452   1.417       .  A
C436        C444   1.387       .  A
C437        C445   1.385       .  A
C437        C454   1.406       .  A
C438        C453   1.417       .  A
C438        C446   1.386       .  A
C439        C451   1.425       .  A
C439        C447   1.388       .  A
C440        C454   1.408       .  A
C440        C448   1.383       .  A
C441        C449   1.384       .  A
C441        C452   1.419       .  A
C442        C450   1.388       .  A
C442        C453   1.437       .  A
C443        C444   1.376       .  A
C443        H455   1.082       .  S
C444        H456   1.082       .  S
C445        C446   1.375       .  A
C445        H457   1.083       .  S
C446        H458   1.082       .  S
C447        C448   1.368       .  A
C447        H459   1.080       .  S
C448        H460   1.083       .  S
C449        C450   1.372       .  A
C449        H461   1.082       .  S
C450        H462   1.080       .  S
C452        C589   1.463       .  S
C453       C1209   1.561       .  S
C454       C1379   1.445       .  S
O465        C481   1.269       .  A
O465       Zn471   1.965       .  S
C466        C585   1.447   1_554  S
C466        O680   1.274   1_554  A
O467        C480   1.267       .  A
O467       Cd474   2.045       .  S
O468        C882   1.273       .  A
O468       Cd477   2.048       .  S
O469        C681   1.275       .  A
O469       Cd473   2.086       .  S
O470        C877   1.271   1_565  A
O470       Cd473   2.030       .  S
Zn471       O482   2.032       .  S
Zn471       O484   2.020       .  S
Zn471       O674   1.933       .  S
O472       C1275   1.277   1_554  A
O472       Cd477   2.096       .  S
Cd473       O475   2.079       .  S
Cd473      O1070   1.993   1_565  S
Cd474       O478   2.052       .  S
Cd474       O487   2.008       .  S
Cd474      O1268   1.983       .  S
O476       Zn669   1.933   1_554  S
O476      Cd1067   1.993   1_554  S
O476      Cd1266   1.983       .  S
Cd477       O479   2.099       .  S
O478        C485   1.268       .  A
C480        C792   1.430       .  S
C480       O1474   1.272   1_454  A
C481        C905   1.427       .  S
C481        O866   1.271       .  A
O482        C664   1.274       .  A
C483        C592   1.448       .  S
C483        O667   1.275       .  A
C483       O1264   1.277   1_456  A
O484       C1470   1.272       .  A
C485        C584   1.434       .  S
C486       C1296   1.426       .  S
C486        O864   1.273       .  A
C486        O487   1.268   1_655  A
O488        C504   1.269       .  A
O488       Zn494   1.964       .  S
C489        C582   1.431       .  S
C489        O505   1.272       .  A
O490        C503   1.277   1_455  A
O490       Cd497   2.098       .  S
O491       C1301   1.269   1_565  A
O491       Cd500   2.014       .  S
O492        C506   1.272   1_455  A
O492       Cd496   2.074       .  S
O493        C900   1.270   1_455  A
O493       Cd496   2.029       .  S
Zn494       O505   2.021       .  S
Zn494       O507   2.037       .  S
Zn494       O499   1.933       .  S
O495       C1298   1.268       .  A
O495       Cd500   2.053       .  S
Cd496       O498   2.085       .  S
Cd496       O895   1.993   1_455  S
Cd497       O501   2.093       .  S
Cd497       O510   2.046       .  S
Cd497      O1291   1.998   1_455  S
O499       Cd892   1.993       .  S
O499      Cd1289   1.998       .  S
Cd500       O502   2.049       .  S
O501        C508   1.277       .  A
C503        C590   1.449       .  S
C503       O1299   1.274       .  A
C504       C1278   1.426       .  S
C504        O889   1.270       .  A
C506        C588   1.432       .  S
C506       O1287   1.268       .  A
O507       C1295   1.274       .  A
C508        C579   1.446       .  S
C509        C877   1.426       .  S
C509       O1283   1.269   1_445  A
N511        H543   1.043       .  S
N511        C516   1.355       .  A
N511        C515   1.363       .  A
N512        C519   1.359       .  A
N512        C520   1.351       .  A
N513        H544   1.043       .  S
N513        C518   1.359       .  A
N513        C517   1.351       .  A
N514        C521   1.356       .  A
N514        C522   1.364       .  A
C515        C523   1.386       .  A
C515        C531   1.425       .  A
C516        C532   1.416   1_554  A
C516        C524   1.387       .  A
C517        C525   1.385       .  A
C517        C732   1.407       .  A
C518        C533   1.419       .  A
C518        C526   1.387       .  A
C519        C531   1.426       .  A
C519        C527   1.388       .  A
C520        C534   1.409       .  A
C520        C528   1.384       .  A
C521        C529   1.384       .  A
C521        C730   1.420       .  A
C522        C530   1.388       .  A
C522        C533   1.437       .  A
C523        C524   1.375       .  A
C523        H535   1.082       .  S
C524        H536   1.082       .  S
C525        C526   1.375       .  A
C525        H537   1.083       .  S
C526        H538   1.082       .  S
C527        C528   1.370       .  A
C527        H539   1.081       .  S
C528        H540   1.083       .  S
C529        C530   1.372       .  A
C529        H541   1.082       .  S
C530        H542   1.080       .  S
C531        C568   1.561       .  S
C532        C719   1.420       .  A
C532        C586   1.462       .  S
C533        C566   1.562       .  S
C534        C715   1.407   1_554  A
C534        C583   1.447       .  S
N545        H577   1.044       .  S
N545        C550   1.357       .  A
N545        C549   1.350       .  A
N546        C553   1.350       .  A
N546        C554   1.358       .  A
N547        H578   1.043       .  S
N547        C552   1.356       .  A
N547        C551   1.364       .  A
N548        C555   1.365       .  A
N548        C556   1.354       .  A
C549        C557   1.385       .  A
C549        C565   1.404       .  A
C550        C566   1.415       .  A
C550        C558   1.386       .  A
C551        C559   1.386       .  A
C551        C568   1.428       .  A
C552        C567   1.419       .  A
C552        C560   1.388       .  A
C553        C565   1.407       .  A
C553        C561   1.383       .  A
C554        C568   1.427       .  A
C554        C562   1.388       .  A
C555        C563   1.387       .  A
C555        C566   1.436       .  A
C556        C564   1.385       .  A
C556        C567   1.421       .  A
C557        C558   1.375       .  A
C557        H569   1.082       .  S
C558        H570   1.082       .  S
C559        C560   1.376       .  A
C559        H571   1.082       .  S
C560        H572   1.082       .  S
C561        C562   1.370       .  A
C561        H573   1.083       .  S
C562        H574   1.081       .  S
C563        C564   1.373       .  A
C563        H575   1.080       .  S
C564        H576   1.082       .  S
C565        C581   1.445       .  S
C567        C580   1.461       .  S
C579        C580   1.213       .  T
C581        C582   1.204       .  T
C583        C584   1.205       .  T
C585        C586   1.213       .  T
C587       C1246   1.445       .  S
C587        C588   1.204       .  T
C589       C1382   1.214       .  T
C590       C1381   1.214       .  T
C591        C592   1.214       .  T
C593       C1210   1.443       .  S
C593        C594   1.203       .  T
C594        C678   1.430       .  S
N595        H627   1.044   1_455  S
N595       C1392   1.349       .  A
N595        C599   1.357       .  A
N596        C603   1.364       .  A
N596        C604   1.354       .  A
N597        H628   1.043       .  S
N597        C602   1.364       .  A
N597       C1393   1.356       .  A
N598        C605   1.350       .  A
N598        C606   1.357       .  A
C599        C607   1.386       .  A
C599        C615   1.415       .  A
C600       N1387   1.349       .  A
C600        C608   1.385       .  A
C601       N1389   1.356       .  A
C601        C609   1.387       .  A
C602        C617   1.429       .  A
C602        C610   1.386       .  A
C603        C615   1.436       .  A
C603        C611   1.388       .  A
C604        C618   1.421       .  A
C604        C612   1.385       .  A
C605        C613   1.383       .  A
C605        C616   1.406   1_556  A
C606        C614   1.388       .  A
C606        C617   1.426       .  A
C607       C1400   1.375       .  A
C607        H619   1.082       .  S
C608       C1399   1.375       .  A
C608        H620   1.083       .  S
C609       C1402   1.377       .  A
C609        H621   1.082       .  S
C610       C1401   1.377       .  A
C610        H622   1.082       .  S
C611        C612   1.373       .  A
C611        H623   1.080       .  S
C612        H624   1.082       .  S
C613        C614   1.369       .  A
C613        H625   1.083       .  S
C614        H626   1.080       .  S
C615       C1443   1.561   1_455  S
C616       C1583   1.443       .  S
C617        C649   1.561       .  S
C618        C789   1.462       .  S
N629        H661   1.044       .  S
N629        C634   1.356       .  A
N629        C633   1.363       .  A
N630        C637   1.359       .  A
N630        C638   1.350       .  A
N631        H662   1.043       .  S
N631        C636   1.358       .  A
N631        C635   1.350       .  A
N632        C639   1.355       .  A
N632        C640   1.364       .  A
C633        C641   1.386       .  A
C633        C649   1.426       .  A
C634        C650   1.417       .  A
C634        C642   1.387       .  A
C635        C643   1.385       .  A
C635        C652   1.406       .  A
C636        C651   1.417       .  A
C636        C644   1.386       .  A
C637        C649   1.425       .  A
C637        C645   1.388       .  A
C638        C652   1.408       .  A
C638        C646   1.384       .  A
C639        C647   1.384       .  A
C639        C650   1.419       .  A
C640        C648   1.388       .  A
C640        C651   1.436       .  A
C641        C642   1.376       .  A
C641        H653   1.082       .  S
C642        H654   1.082       .  S
C643        C644   1.375       .  A
C643        H655   1.083       .  S
C644        H656   1.082       .  S
C645        C646   1.368       .  A
C645        H657   1.080       .  S
C646        H658   1.083       .  S
C647        C648   1.372       .  A
C647        H659   1.082       .  S
C648        H660   1.080       .  S
C650        C787   1.463       .  S
C651       C1407   1.561       .  S
C652       C1577   1.445       .  S
O663        C679   1.269       .  A
O663       Zn669   1.965       .  S
C664        C783   1.447       .  S
O665        C678   1.267       .  A
O665       Cd672   2.045       .  S
O666       C1080   1.273       .  A
O666       Cd675   2.048       .  S
O667       Cd671   2.086       .  S
O668       C1075   1.271   1_565  A
O668       Cd671   2.030       .  S
Zn669       O680   2.032       .  S
Zn669       O682   2.020       .  S
O670       C1473   1.277       .  A
O670       Cd675   2.096       .  S
Cd671       O673   2.079       .  S
Cd671       O872   1.993   1_566  S
Cd672       O676   2.052       .  S
Cd672       O685   2.008       .  S
Cd672      O1466   1.983       .  S
O674       Cd869   1.993       .  S
O674      Cd1464   1.983       .  S
Cd675       O677   2.099       .  S
O676        C683   1.268       .  A
C678       O1276   1.272   1_455  A
C679       C1103   1.426       .  S
C679       O1064   1.271       .  A
C681        C790   1.448       .  S
C681       O1462   1.277   1_455  A
O682       C1272   1.272   1_556  A
C683        C782   1.434       .  S
C684       C1494   1.426       .  S
C684       O1062   1.273       .  A
C684        O685   1.268   1_655  A
O686        C702   1.269       .  A
O686       Zn692   1.965       .  S
C687        C780   1.432       .  S
C687        O703   1.272       .  A
O688        C701   1.277   1_455  A
O688       Cd695   2.099       .  S
O689       C1499   1.269   1_565  A
O689       Cd698   2.014       .  S
O690        C704   1.272   1_455  A
O690       Cd694   2.074       .  S
O691       C1098   1.270   1_455  A
O691       Cd694   2.029       .  S
Zn692       O703   2.021       .  S
Zn692       O705   2.037       .  S
Zn692       O697   1.933       .  S
O693       C1496   1.268       .  A
O693       Cd698   2.053       .  S
Cd694       O696   2.085       .  S
Cd694      O1093   1.993   1_455  S
Cd695       O699   2.093       .  S
Cd695       O708   2.045       .  S
Cd695      O1489   1.998   1_455  S
O697      Cd1090   1.993       .  S
O697      Cd1487   1.998       .  S
Cd698       O700   2.049       .  S
O699        C706   1.277       .  A
C701        C788   1.449       .  S
C701       O1497   1.274       .  A
C702       C1476   1.426       .  S
C702       O1087   1.270       .  A
C704        C786   1.432       .  S
C704       O1485   1.268       .  A
O705       C1493   1.274       .  A
C706        C777   1.446       .  S
C707       C1075   1.427       .  S
C707       O1481   1.269   1_445  A
N709        H741   1.043       .  S
N709        C714   1.355       .  A
N709        C713   1.363       .  A
N710        C717   1.359       .  A
N710        C718   1.351       .  A
N711        H742   1.043       .  S
N711        C716   1.359       .  A
N711        C715   1.351       .  A
N712        C719   1.356       .  A
N712        C720   1.364       .  A
C713        C721   1.386       .  A
C713        C729   1.425       .  A
C714        C730   1.416       .  A
C714        C722   1.387       .  A
C715        C723   1.385       .  A
C716        C731   1.419       .  A
C716        C724   1.387       .  A
C717        C729   1.426       .  A
C717        C725   1.388       .  A
C718        C732   1.409       .  A
C718        C726   1.384       .  A
C719        C727   1.384       .  A
C720        C728   1.388       .  A
C720        C731   1.437       .  A
C721        C722   1.375       .  A
C721        H733   1.082       .  S
C722        H734   1.082       .  S
C723        C724   1.375       .  A
C723        H735   1.083       .  S
C724        H736   1.082       .  S
C725        C726   1.370       .  A
C725        H737   1.081       .  S
C726        H738   1.083       .  S
C727        C728   1.372       .  A
C727        H739   1.082       .  S
C728        H740   1.080       .  S
C729        C766   1.561       .  S
C730        C784   1.462       .  S
C731        C764   1.562       .  S
C732        C781   1.447       .  S
N743        H775   1.044       .  S
N743        C748   1.357       .  A
N743        C747   1.350       .  A
N744        C751   1.350       .  A
N744        C752   1.358       .  A
N745        H776   1.043       .  S
N745        C750   1.356       .  A
N745        C749   1.364       .  A
N746        C753   1.364       .  A
N746        C754   1.354       .  A
C747        C755   1.385       .  A
C747        C763   1.404       .  A
C748        C764   1.415       .  A
C748        C756   1.386       .  A
C749        C757   1.386       .  A
C749        C766   1.428       .  A
C750        C765   1.419       .  A
C750        C758   1.388       .  A
C751        C763   1.407       .  A
C751        C759   1.382       .  A
C752        C766   1.427       .  A
C752        C760   1.388       .  A
C753        C761   1.387       .  A
C753        C764   1.436       .  A
C754        C762   1.385       .  A
C754        C765   1.421       .  A
C755        C756   1.375       .  A
C755        H767   1.082       .  S
C756        H768   1.082       .  S
C757        C758   1.376       .  A
C757        H769   1.082       .  S
C758        H770   1.082       .  S
C759        C760   1.370       .  A
C759        H771   1.083       .  S
C760        H772   1.081       .  S
C761        C762   1.373       .  A
C761        H773   1.080       .  S
C762        H774   1.082       .  S
C763        C779   1.445       .  S
C765        C778   1.461       .  S
C777        C778   1.213       .  T
C779        C780   1.204       .  T
C781        C782   1.205       .  T
C783        C784   1.213       .  T
C785       C1444   1.445       .  S
C785        C786   1.204       .  T
C787       C1580   1.214       .  T
C788       C1579   1.214       .  T
C789        C790   1.214       .  T
C791       C1408   1.443       .  S
C791        C792   1.203       .  T
N793        H825   1.044       .  S
N793        C797   1.357       .  A
N794        C801   1.364       .  A
N794        C802   1.354       .  A
N795        H826   1.043   1_455  S
N795        C800   1.364       .  A
N796        C803   1.349       .  A
N796        C804   1.357       .  A
C797        C805   1.386       .  A
C797        C813   1.415       .  A
C798       C1012   1.403       .  A
C798        C806   1.385       .  A
C799        C807   1.387       .  A
C799       C1014   1.419       .  A
C800        C815   1.429       .  A
C800        C808   1.386       .  A
C801        C813   1.436       .  A
C801        C809   1.388       .  A
C802        C816   1.421       .  A
C802        C810   1.385       .  A
C803        C811   1.383       .  A
C803        C814   1.406       .  A
C804        C812   1.388       .  A
C804        C815   1.426       .  A
C805        H817   1.082       .  S
C806        H818   1.083       .  S
C807        H819   1.082       .  S
C808        H820   1.082       .  S
C809        C810   1.373       .  A
C809        H821   1.080       .  S
C810        H822   1.082       .  S
C811        C812   1.369       .  A
C811        H823   1.083       .  S
C812        H824   1.080       .  S
C814        C996   1.403       .  A
C815        C847   1.561   1_455  S
C816        C997   1.419   1_554  A
C816        C987   1.462   1_554  S
N827        H859   1.044   1_655  S
N827        C832   1.356       .  A
N827        C831   1.363       .  A
N828        C835   1.359       .  A
N828        C836   1.350       .  A
N829        H860   1.043   1_655  S
N829        C834   1.358       .  A
N829        C833   1.350       .  A
N830        C837   1.355       .  A
N830        C838   1.364       .  A
C831        C839   1.386       .  A
C831        C847   1.426       .  A
C832        C848   1.417       .  A
C832        C840   1.387       .  A
C833        C841   1.385       .  A
C833        C850   1.406       .  A
C834        C849   1.417       .  A
C834        C842   1.387       .  A
C835        C847   1.425       .  A
C835        C843   1.388       .  A
C836        C850   1.408       .  A
C836        C844   1.383       .  A
C837        C845   1.384       .  A
C837        C848   1.419       .  A
C838        C846   1.388       .  A
C838        C849   1.437       .  A
C839        C840   1.376       .  A
C839        H851   1.082       .  S
C840        H852   1.082       .  S
C841        C842   1.375       .  A
C841        H853   1.083       .  S
C842        H854   1.082       .  S
C843        C844   1.368       .  A
C843        H855   1.080       .  S
C844        H856   1.083       .  S
C845        C846   1.372       .  A
C845        H857   1.082       .  S
C846        H858   1.080       .  S
C848        C985   1.463       .  S
O861        C877   1.269   1_655  A
O861       Zn867   1.965       .  S
C862        C981   1.447   1_554  S
C862       O1076   1.274   1_554  A
C862       O1271   1.277   1_545  A
O863        C876   1.267       .  A
O863       Cd870   2.045       .  S
O864       Cd873   2.048       .  S
O865       C1077   1.275       .  A
O865       Cd869   2.086       .  S
O866       Cd869   2.030       .  S
Zn867       O878   2.032       .  S
Zn867       O880   2.020       .  S
Zn867      O1070   1.933   1_655  S
O868       Cd873   2.096       .  S
Cd869       O871   2.079       .  S
Cd870       O874   2.052       .  S
Cd870       O883   2.008       .  S
O871       C1475   1.273       .  A
O872      Zn1065   1.933   1_454  S
O872      Cd1269   1.997   1_445  S
Cd873       O875   2.099       .  S
Cd873      O1268   1.997   1_655  S
O874        C881   1.268       .  A
O875       C1258   1.277       .  A
C876       C1188   1.430       .  S
O878       C1060   1.274       .  A
C879        C988   1.448       .  S
C879       O1063   1.275       .  A
C881        C980   1.434       .  S
C881       O1465   1.273   1_544  A
C882        O883   1.268   1_565  A
O884        C900   1.269   1_545  A
O884       Zn890   1.964       .  S
C885        C978   1.431       .  S
C885        O901   1.272   1_565  A
C885       O1294   1.268       .  A
O886        C899   1.277       .  A
O886       Cd893   2.098       .  S
O887       Cd896   2.014       .  S
O888        C902   1.272       .  A
O888       Cd892   2.074       .  S
O889       Cd892   2.029       .  S
Zn890       O901   2.021       .  S
Zn890       O903   2.037       .  S
Zn890       O895   1.933   1_545  S
O891       Cd896   2.053       .  S
Cd892       O894   2.085       .  S
Cd893       O897   2.094       .  S
Cd893       O906   2.045       .  S
O894       C1300   1.275       .  A
O895      Cd1292   1.984       .  S
Cd896       O898   2.049       .  S
Cd896      O1291   1.984       .  S
O897        C904   1.277   1_545  A
O898       C1281   1.268       .  A
C899        C986   1.449       .  S
C902        C984   1.432       .  S
C904        C975   1.446       .  S
C904       O1290   1.275       .  A
C905       O1302   1.272       .  A
O906       C1301   1.272       .  A
N907        H939   1.043   1_545  S
N907        C912   1.355       .  A
N907        C911   1.363       .  A
N908        C915   1.359       .  A
N908        C916   1.351       .  A
N909        H940   1.043   1_545  S
N909        C914   1.359       .  A
N909        C913   1.351       .  A
N910        C917   1.356       .  A
N910        C918   1.364       .  A
C911        C919   1.386       .  A
C911        C927   1.425       .  A
C912        C928   1.416   1_554  A
C912        C920   1.387       .  A
C913        C921   1.385       .  A
C913       C1128   1.407       .  A
C914        C929   1.419       .  A
C914        C922   1.387       .  A
C915        C927   1.426       .  A
C915        C923   1.388       .  A
C916        C930   1.409       .  A
C916        C924   1.384       .  A
C917        C925   1.384       .  A
C917       C1126   1.420       .  A
C918        C926   1.388       .  A
C918        C929   1.437       .  A
C919        C920   1.375       .  A
C919        H931   1.082       .  S
C920        H932   1.082       .  S
C921        C922   1.375       .  A
C921        H933   1.083       .  S
C922        H934   1.082       .  S
C923        C924   1.370       .  A
C923        H935   1.081       .  S
C924        H936   1.083       .  S
C925        C926   1.372       .  A
C925        H937   1.082       .  S
C926        H938   1.080       .  S
C927        C964   1.561   1_545  S
C928       C1115   1.420       .  A
C928        C982   1.462       .  S
C929        C962   1.562   1_545  S
C930       C1111   1.407   1_554  A
C930        C979   1.447       .  S
N941        H973   1.044   1_565  S
N941        C946   1.357       .  A
N941        C945   1.350       .  A
N942        C949   1.350       .  A
N942        C950   1.358       .  A
N943        H974   1.042   1_565  S
N943        C948   1.356       .  A
N943        C947   1.364       .  A
N944        C951   1.365       .  A
N944        C952   1.354       .  A
C945        C953   1.385       .  A
C945        C961   1.404       .  A
C946        C962   1.415       .  A
C946        C954   1.386       .  A
C947        C955   1.386       .  A
C947        C964   1.428       .  A
C948        C963   1.419       .  A
C948        C956   1.388       .  A
C949        C961   1.407       .  A
C949        C957   1.383       .  A
C950        C964   1.427       .  A
C950        C958   1.388       .  A
C951        C959   1.387       .  A
C951        C962   1.436       .  A
C952        C960   1.385       .  A
C952        C963   1.421       .  A
C953        C954   1.375       .  A
C953        H965   1.082       .  S
C954        H966   1.082       .  S
C955        C956   1.376       .  A
C955        H967   1.082       .  S
C956        H968   1.082       .  S
C957        C958   1.370       .  A
C957        H969   1.083       .  S
C958        H970   1.081       .  S
C959        C960   1.373       .  A
C959        H971   1.080       .  S
C960        H972   1.082       .  S
C961        C977   1.445       .  S
C963        C976   1.461       .  S
C975        C976   1.213       .  T
C977        C978   1.204       .  T
C979        C980   1.205       .  T
C981        C982   1.213       .  T
C983        C984   1.204       .  T
C987        C988   1.214       .  T
C989        C990   1.203       .  T
C990       C1074   1.430       .  S
N991       H1023   1.044       .  S
N991        C995   1.357       .  A
N992        C999   1.364       .  A
N992       C1000   1.354       .  A
N993       H1024   1.043   1_455  S
N993        C998   1.364       .  A
N994       C1001   1.349       .  A
N994       C1002   1.357       .  A
C995       C1003   1.386       .  A
C995       C1011   1.415       .  A
C996       C1004   1.385       .  A
C997       C1005   1.387       .  A
C998       C1013   1.429       .  A
C998       C1006   1.386       .  A
C999       C1011   1.436       .  A
C999       C1007   1.388       .  A
C1000      C1014   1.421       .  A
C1000      C1008   1.385       .  A
C1001      C1009   1.383       .  A
C1001      C1012   1.406   1_556  A
C1002      C1010   1.388       .  A
C1002      C1013   1.426       .  A
C1003      H1015   1.082       .  S
C1004      H1016   1.083       .  S
C1005      H1017   1.082       .  S
C1006      H1018   1.082       .  S
C1007      C1008   1.373       .  A
C1007      H1019   1.080       .  S
C1008      H1020   1.082       .  S
C1009      C1010   1.370       .  A
C1009      H1021   1.083       .  S
C1010      H1022   1.080       .  S
C1013      C1045   1.561   1_455  S
C1014      C1185   1.462       .  S
N1025      H1057   1.044   1_655  S
N1025      C1030   1.356       .  A
N1025      C1029   1.363       .  A
N1026      C1033   1.359       .  A
N1026      C1034   1.350       .  A
N1027      H1058   1.043   1_655  S
N1027      C1032   1.358       .  A
N1027      C1031   1.350       .  A
N1028      C1035   1.355       .  A
N1028      C1036   1.364       .  A
C1029      C1037   1.386       .  A
C1029      C1045   1.426       .  A
C1030      C1046   1.417       .  A
C1030      C1038   1.387       .  A
C1031      C1039   1.385       .  A
C1031      C1048   1.406       .  A
C1032      C1047   1.417       .  A
C1032      C1040   1.386       .  A
C1033      C1045   1.425       .  A
C1033      C1041   1.388       .  A
C1034      C1048   1.408       .  A
C1034      C1042   1.383       .  A
C1035      C1043   1.384       .  A
C1035      C1046   1.419       .  A
C1036      C1044   1.388       .  A
C1036      C1047   1.437       .  A
C1037      C1038   1.376       .  A
C1037      H1049   1.082       .  S
C1038      H1050   1.082       .  S
C1039      C1040   1.375       .  A
C1039      H1051   1.083       .  S
C1040      H1052   1.082       .  S
C1041      C1042   1.368       .  A
C1041      H1053   1.080       .  S
C1042      H1054   1.083       .  S
C1043      C1044   1.372       .  A
C1043      H1055   1.082       .  S
C1044      H1056   1.080       .  S
C1046      C1183   1.463       .  S
O1059      C1075   1.269   1_655  A
O1059     Zn1065   1.966       .  S
C1060      C1179   1.447       .  S
C1060      O1469   1.277   1_545  A
O1061      C1074   1.267       .  A
O1061     Cd1068   2.045       .  S
O1062     Cd1071   2.048       .  S
O1063     Cd1067   2.086       .  S
O1064     Cd1067   2.030       .  S
Zn1065     O1076   2.032       .  S
Zn1065     O1078   2.020       .  S
O1066     Cd1071   2.096       .  S
Cd1067     O1069   2.079       .  S
Cd1068     O1072   2.052       .  S
Cd1068     O1081   2.008       .  S
O1069      C1277   1.273   1_556  A
O1070     Cd1467   1.997   1_445  S
Cd1071     O1073   2.099       .  S
Cd1071     O1466   1.997   1_655  S
O1072      C1079   1.268       .  A
O1073      C1456   1.277       .  A
C1077      C1186   1.448       .  S
C1079      C1178   1.434       .  S
C1079      O1267   1.273   1_545  A
C1080      O1081   1.268   1_565  A
O1082      C1098   1.269   1_545  A
O1082     Zn1088   1.964       .  S
C1083      C1176   1.432       .  S
C1083      O1099   1.272   1_565  A
C1083      O1492   1.268       .  A
O1084      C1097   1.277       .  A
O1084     Cd1091   2.098       .  S
O1085     Cd1094   2.014       .  S
O1086      C1100   1.272       .  A
O1086     Cd1090   2.074       .  S
O1087     Cd1090   2.029       .  S
Zn1088     O1099   2.021       .  S
Zn1088     O1101   2.037       .  S
Zn1088     O1093   1.933   1_545  S
O1089     Cd1094   2.053       .  S
Cd1090     O1092   2.085       .  S
Cd1091     O1095   2.093       .  S
Cd1091     O1104   2.045       .  S
O1092      C1498   1.275       .  A
O1093     Cd1490   1.984       .  S
Cd1094     O1096   2.049       .  S
Cd1094     O1489   1.984       .  S
O1095      C1102   1.277   1_545  A
O1096      C1479   1.268       .  A
C1097      C1184   1.449       .  S
C1100      C1182   1.432       .  S
C1102      C1173   1.446       .  S
C1102      O1488   1.275       .  A
C1103      O1500   1.272       .  A
O1104      C1499   1.272       .  A
N1105      H1137   1.043   1_545  S
N1105      C1110   1.355       .  A
N1105      C1109   1.363       .  A
N1106      C1113   1.359       .  A
N1106      C1114   1.351       .  A
N1107      H1138   1.043   1_545  S
N1107      C1112   1.359       .  A
N1107      C1111   1.351       .  A
N1108      C1115   1.356       .  A
N1108      C1116   1.364       .  A
C1109      C1117   1.386       .  A
C1109      C1125   1.425       .  A
C1110      C1126   1.416       .  A
C1110      C1118   1.387       .  A
C1111      C1119   1.385       .  A
C1112      C1127   1.419       .  A
C1112      C1120   1.386       .  A
C1113      C1125   1.426       .  A
C1113      C1121   1.388       .  A
C1114      C1128   1.409       .  A
C1114      C1122   1.384       .  A
C1115      C1123   1.384       .  A
C1116      C1124   1.388       .  A
C1116      C1127   1.437       .  A
C1117      C1118   1.375       .  A
C1117      H1129   1.082       .  S
C1118      H1130   1.082       .  S
C1119      C1120   1.375       .  A
C1119      H1131   1.083       .  S
C1120      H1132   1.082       .  S
C1121      C1122   1.370       .  A
C1121      H1133   1.081       .  S
C1122      H1134   1.083       .  S
C1123      C1124   1.372       .  A
C1123      H1135   1.082       .  S
C1124      H1136   1.080       .  S
C1125      C1162   1.561   1_545  S
C1126      C1180   1.462       .  S
C1127      C1160   1.562   1_545  S
C1128      C1177   1.447       .  S
N1139      H1171   1.044   1_565  S
N1139      C1144   1.357       .  A
N1139      C1143   1.350       .  A
N1140      C1147   1.350       .  A
N1140      C1148   1.358       .  A
N1141      H1172   1.043   1_565  S
N1141      C1146   1.356       .  A
N1141      C1145   1.364       .  A
N1142      C1149   1.364       .  A
N1142      C1150   1.354       .  A
C1143      C1151   1.385       .  A
C1143      C1159   1.404       .  A
C1144      C1160   1.415       .  A
C1144      C1152   1.386       .  A
C1145      C1153   1.386       .  A
C1145      C1162   1.428       .  A
C1146      C1161   1.419       .  A
C1146      C1154   1.388       .  A
C1147      C1159   1.407       .  A
C1147      C1155   1.383       .  A
C1148      C1162   1.427       .  A
C1148      C1156   1.388       .  A
C1149      C1157   1.388       .  A
C1149      C1160   1.436       .  A
C1150      C1158   1.385       .  A
C1150      C1161   1.421       .  A
C1151      C1152   1.375       .  A
C1151      H1163   1.082       .  S
C1152      H1164   1.082       .  S
C1153      C1154   1.376       .  A
C1153      H1165   1.082       .  S
C1154      H1166   1.082       .  S
C1155      C1156   1.370       .  A
C1155      H1167   1.083       .  S
C1156      H1168   1.081       .  S
C1157      C1158   1.373       .  A
C1157      H1169   1.080       .  S
C1158      H1170   1.082       .  S
C1159      C1175   1.445       .  S
C1161      C1174   1.461       .  S
C1173      C1174   1.213       .  T
C1175      C1176   1.204       .  T
C1177      C1178   1.205       .  T
C1179      C1180   1.213       .  T
C1181      C1182   1.204       .  T
C1185      C1186   1.214       .  T
C1187      C1188   1.203       .  T
N1189      H1221   1.044       .  S
N1189      C1193   1.357       .  A
N1190      C1197   1.364       .  A
N1190      C1198   1.354       .  A
N1191      H1222   1.043   1_455  S
N1191      C1196   1.364       .  A
N1192      C1199   1.349       .  A
N1192      C1200   1.357       .  A
C1193      C1201   1.386       .  A
C1193      C1209   1.415       .  A
C1194      C1408   1.403       .  A
C1194      C1202   1.385       .  A
C1195      C1203   1.387       .  A
C1195      C1410   1.419       .  A
C1196      C1211   1.429       .  A
C1196      C1204   1.386       .  A
C1197      C1209   1.436       .  A
C1197      C1205   1.388       .  A
C1198      C1212   1.421       .  A
C1198      C1206   1.385       .  A
C1199      C1207   1.383       .  A
C1199      C1210   1.406       .  A
C1200      C1208   1.388       .  A
C1200      C1211   1.426       .  A
C1201      H1213   1.082       .  S
C1202      H1214   1.082       .  S
C1203      H1215   1.082       .  S
C1204      H1216   1.082       .  S
C1205      C1206   1.373       .  A
C1205      H1217   1.080       .  S
C1206      H1218   1.082       .  S
C1207      C1208   1.369       .  A
C1207      H1219   1.083       .  S
C1208      H1220   1.080       .  S
C1210      C1392   1.403       .  A
C1211      C1243   1.561   1_455  S
C1212      C1393   1.419   1_554  A
C1212      C1383   1.462   1_554  S
N1223      H1255   1.044   1_655  S
N1223      C1228   1.356       .  A
N1223      C1227   1.363       .  A
N1224      C1231   1.359       .  A
N1224      C1232   1.350       .  A
N1225      H1256   1.043   1_655  S
N1225      C1230   1.358       .  A
N1225      C1229   1.351       .  A
N1226      C1233   1.355       .  A
N1226      C1234   1.364       .  A
C1227      C1235   1.386       .  A
C1227      C1243   1.426       .  A
C1228      C1244   1.417       .  A
C1228      C1236   1.387       .  A
C1229      C1237   1.386       .  A
C1229      C1246   1.406       .  A
C1230      C1245   1.417       .  A
C1230      C1238   1.387       .  A
C1231      C1243   1.425       .  A
C1231      C1239   1.388       .  A
C1232      C1246   1.408       .  A
C1232      C1240   1.383       .  A
C1233      C1241   1.384       .  A
C1233      C1244   1.419       .  A
C1234      C1242   1.388       .  A
C1234      C1245   1.437       .  A
C1235      C1236   1.376       .  A
C1235      H1247   1.082       .  S
C1236      H1248   1.082       .  S
C1237      C1238   1.375       .  A
C1237      H1249   1.083       .  S
C1238      H1250   1.082       .  S
C1239      C1240   1.369       .  A
C1239      H1251   1.080       .  S
C1240      H1252   1.083       .  S
C1241      C1242   1.372       .  A
C1241      H1253   1.082       .  S
C1242      H1254   1.080       .  S
C1244      C1381   1.463       .  S
O1257      C1273   1.269   1_655  A
O1257     Zn1263   1.965       .  S
C1258      C1377   1.447   1_554  S
C1258      O1472   1.274   1_554  A
O1259      C1272   1.267       .  A
O1259     Cd1266   2.045       .  S
O1260     Cd1269   2.048       .  S
O1261      C1473   1.275       .  A
O1261     Cd1265   2.086       .  S
O1262     Cd1265   2.030       .  S
Zn1263     O1274   2.032       .  S
Zn1263     O1276   2.020       .  S
Zn1263     O1466   1.933   1_655  S
O1264     Cd1269   2.096       .  S
Cd1265     O1267   2.079       .  S
Cd1266     O1270   2.052       .  S
Cd1266     O1279   2.008       .  S
O1268     Zn1461   1.934   1_454  S
Cd1269     O1271   2.098       .  S
O1270      C1277   1.268       .  A
C1272      C1584   1.430       .  S
O1274      C1456   1.274       .  A
C1275      C1384   1.448       .  S
C1275      O1459   1.275       .  A
C1277      C1376   1.434       .  S
C1278      O1279   1.268       .  A
O1280      C1296   1.269       .  A
O1280     Zn1286   1.964       .  S
C1281      C1374   1.432       .  S
C1281      O1297   1.272       .  A
O1282      C1295   1.277       .  A
O1282     Cd1289   2.099       .  S
O1283     Cd1292   2.014       .  S
O1284      C1298   1.272       .  A
O1284     Cd1288   2.074       .  S
O1285     Cd1288   2.029       .  S
Zn1286     O1297   2.021       .  S
Zn1286     O1299   2.037       .  S
Zn1286     O1291   1.933       .  S
O1287     Cd1292   2.053       .  S
Cd1288     O1290   2.085       .  S
Cd1289     O1293   2.093       .  S
Cd1289     O1302   2.046       .  S
Cd1292     O1294   2.049       .  S
O1293      C1300   1.277       .  A
C1295      C1382   1.449       .  S
C1298      C1380   1.432       .  S
C1300      C1371   1.446       .  S
N1303      H1335   1.043       .  S
N1303      C1308   1.355       .  A
N1303      C1307   1.363       .  A
N1304      C1311   1.359       .  A
N1304      C1312   1.351       .  A
N1305      H1336   1.043       .  S
N1305      C1310   1.359       .  A
N1305      C1309   1.351       .  A
N1306      C1313   1.356       .  A
N1306      C1314   1.364       .  A
C1307      C1315   1.386       .  A
C1307      C1323   1.425       .  A
C1308      C1324   1.416   1_554  A
C1308      C1316   1.387       .  A
C1309      C1317   1.385       .  A
C1309      C1524   1.407       .  A
C1310      C1325   1.419       .  A
C1310      C1318   1.387       .  A
C1311      C1323   1.426       .  A
C1311      C1319   1.388       .  A
C1312      C1326   1.409       .  A
C1312      C1320   1.384       .  A
C1313      C1321   1.384       .  A
C1313      C1522   1.420       .  A
C1314      C1322   1.388       .  A
C1314      C1325   1.437       .  A
C1315      C1316   1.375       .  A
C1315      H1327   1.082       .  S
C1316      H1328   1.082       .  S
C1317      C1318   1.375       .  A
C1317      H1329   1.083       .  S
C1318      H1330   1.082       .  S
C1319      C1320   1.370       .  A
C1319      H1331   1.081       .  S
C1320      H1332   1.083       .  S
C1321      C1322   1.372       .  A
C1321      H1333   1.082       .  S
C1322      H1334   1.080       .  S
C1323      C1360   1.561       .  S
C1324      C1511   1.420       .  A
C1324      C1378   1.462       .  S
C1325      C1358   1.562       .  S
C1326      C1507   1.407   1_554  A
C1326      C1375   1.447       .  S
N1337      H1369   1.044       .  S
N1337      C1342   1.357       .  A
N1337      C1341   1.350       .  A
N1338      C1345   1.350       .  A
N1338      C1346   1.358       .  A
N1339      H1370   1.043       .  S
N1339      C1344   1.356       .  A
N1339      C1343   1.364       .  A
N1340      C1347   1.365       .  A
N1340      C1348   1.354       .  A
C1341      C1349   1.385       .  A
C1341      C1357   1.404       .  A
C1342      C1358   1.415       .  A
C1342      C1350   1.386       .  A
C1343      C1351   1.386       .  A
C1343      C1360   1.428       .  A
C1344      C1359   1.419       .  A
C1344      C1352   1.388       .  A
C1345      C1357   1.407       .  A
C1345      C1353   1.383       .  A
C1346      C1360   1.427       .  A
C1346      C1354   1.388       .  A
C1347      C1355   1.387       .  A
C1347      C1358   1.436       .  A
C1348      C1356   1.385       .  A
C1348      C1359   1.421       .  A
C1349      C1350   1.375       .  A
C1349      H1361   1.082       .  S
C1350      H1362   1.082       .  S
C1351      C1352   1.376       .  A
C1351      H1363   1.082       .  S
C1352      H1364   1.082       .  S
C1353      C1354   1.370       .  A
C1353      H1365   1.083       .  S
C1354      H1366   1.081       .  S
C1355      C1356   1.373       .  A
C1355      H1367   1.080       .  S
C1356      H1368   1.082       .  S
C1357      C1373   1.445       .  S
C1359      C1372   1.461       .  S
C1371      C1372   1.213       .  T
C1373      C1374   1.204       .  T
C1375      C1376   1.205       .  T
C1377      C1378   1.213       .  T
C1379      C1380   1.204       .  T
C1383      C1384   1.214       .  T
C1385      C1386   1.203       .  T
C1386      C1470   1.430       .  S
N1387      H1419   1.044       .  S
N1387      C1391   1.357       .  A
N1388      C1395   1.364       .  A
N1388      C1396   1.354       .  A
N1389      H1420   1.044   1_455  S
N1389      C1394   1.364       .  A
N1390      C1397   1.349       .  A
N1390      C1398   1.357       .  A
C1391      C1399   1.386       .  A
C1391      C1407   1.415       .  A
C1392      C1400   1.385       .  A
C1393      C1401   1.387       .  A
C1394      C1409   1.429       .  A
C1394      C1402   1.386       .  A
C1395      C1407   1.436       .  A
C1395      C1403   1.388       .  A
C1396      C1410   1.421       .  A
C1396      C1404   1.385       .  A
C1397      C1405   1.383       .  A
C1397      C1408   1.406   1_556  A
C1398      C1406   1.388       .  A
C1398      C1409   1.426       .  A
C1399      H1411   1.082       .  S
C1400      H1412   1.083       .  S
C1401      H1413   1.082       .  S
C1402      H1414   1.082       .  S
C1403      C1404   1.373       .  A
C1403      H1415   1.080       .  S
C1404      H1416   1.082       .  S
C1405      C1406   1.369       .  A
C1405      H1417   1.083       .  S
C1406      H1418   1.080       .  S
C1409      C1441   1.561   1_455  S
C1410      C1581   1.462       .  S
N1421      H1453   1.044   1_655  S
N1421      C1426   1.356       .  A
N1421      C1425   1.363       .  A
N1422      C1429   1.359       .  A
N1422      C1430   1.350       .  A
N1423      H1454   1.043   1_655  S
N1423      C1428   1.358       .  A
N1423      C1427   1.350       .  A
N1424      C1431   1.355       .  A
N1424      C1432   1.364       .  A
C1425      C1433   1.386       .  A
C1425      C1441   1.426       .  A
C1426      C1442   1.417       .  A
C1426      C1434   1.387       .  A
C1427      C1435   1.385       .  A
C1427      C1444   1.406       .  A
C1428      C1443   1.417       .  A
C1428      C1436   1.386       .  A
C1429      C1441   1.425       .  A
C1429      C1437   1.388       .  A
C1430      C1444   1.408       .  A
C1430      C1438   1.383       .  A
C1431      C1439   1.384       .  A
C1431      C1442   1.419       .  A
C1432      C1440   1.388       .  A
C1432      C1443   1.437       .  A
C1433      C1434   1.376       .  A
C1433      H1445   1.082       .  S
C1434      H1446   1.082       .  S
C1435      C1436   1.375       .  A
C1435      H1447   1.083       .  S
C1436      H1448   1.082       .  S
C1437      C1438   1.368       .  A
C1437      H1449   1.080       .  S
C1438      H1450   1.083       .  S
C1439      C1440   1.372       .  A
C1439      H1451   1.082       .  S
C1440      H1452   1.080       .  S
C1442      C1579   1.463       .  S
O1455      C1471   1.269   1_655  A
O1455     Zn1461   1.965       .  S
C1456      C1575   1.447       .  S
O1457      C1470   1.267       .  A
O1457     Cd1464   2.045       .  S
O1458     Cd1467   2.048       .  S
O1459     Cd1463   2.086       .  S
O1460     Cd1463   2.030       .  S
Zn1461     O1472   2.032       .  S
Zn1461     O1474   2.020       .  S
O1462     Cd1467   2.096       .  S
Cd1463     O1465   2.079       .  S
Cd1464     O1468   2.052       .  S
Cd1464     O1477   2.008       .  S
Cd1467     O1469   2.099       .  S
O1468      C1475   1.268       .  A
C1473      C1582   1.448       .  S
C1475      C1574   1.434       .  S
C1476      O1477   1.268       .  A
O1478      C1494   1.269       .  A
O1478     Zn1484   1.964       .  S
C1479      C1572   1.432       .  S
C1479      O1495   1.272       .  A
O1480      C1493   1.277       .  A
O1480     Cd1487   2.098       .  S
O1481     Cd1490   2.014       .  S
O1482      C1496   1.272       .  A
O1482     Cd1486   2.074       .  S
O1483     Cd1486   2.029       .  S
Zn1484     O1495   2.021       .  S
Zn1484     O1497   2.037       .  S
Zn1484     O1489   1.933       .  S
O1485     Cd1490   2.053       .  S
Cd1486     O1488   2.085       .  S
Cd1487     O1491   2.093       .  S
Cd1487     O1500   2.045       .  S
Cd1490     O1492   2.049       .  S
O1491      C1498   1.277       .  A
C1493      C1580   1.449       .  S
C1496      C1578   1.432       .  S
C1498      C1569   1.446       .  S
N1501      H1533   1.043       .  S
N1501      C1506   1.355       .  A
N1501      C1505   1.363       .  A
N1502      C1509   1.359       .  A
N1502      C1510   1.351       .  A
N1503      H1534   1.043       .  S
N1503      C1508   1.359       .  A
N1503      C1507   1.351       .  A
N1504      C1511   1.356       .  A
N1504      C1512   1.364       .  A
C1505      C1513   1.386       .  A
C1505      C1521   1.425       .  A
C1506      C1522   1.416       .  A
C1506      C1514   1.387       .  A
C1507      C1515   1.385       .  A
C1508      C1523   1.419       .  A
C1508      C1516   1.386       .  A
C1509      C1521   1.426       .  A
C1509      C1517   1.388       .  A
C1510      C1524   1.409       .  A
C1510      C1518   1.384       .  A
C1511      C1519   1.384       .  A
C1512      C1520   1.388       .  A
C1512      C1523   1.437       .  A
C1513      C1514   1.375       .  A
C1513      H1525   1.082       .  S
C1514      H1526   1.082       .  S
C1515      C1516   1.375       .  A
C1515      H1527   1.083       .  S
C1516      H1528   1.082       .  S
C1517      C1518   1.370       .  A
C1517      H1529   1.081       .  S
C1518      H1530   1.083       .  S
C1519      C1520   1.372       .  A
C1519      H1531   1.082       .  S
C1520      H1532   1.080       .  S
C1521      C1558   1.561       .  S
C1522      C1576   1.462       .  S
C1523      C1556   1.562       .  S
C1524      C1573   1.447       .  S
N1535      H1567   1.044       .  S
N1535      C1540   1.357       .  A
N1535      C1539   1.350       .  A
N1536      C1543   1.350       .  A
N1536      C1544   1.358       .  A
N1537      H1568   1.042       .  S
N1537      C1542   1.356       .  A
N1537      C1541   1.364       .  A
N1538      C1545   1.364       .  A
N1538      C1546   1.354       .  A
C1539      C1547   1.385       .  A
C1539      C1555   1.404       .  A
C1540      C1556   1.415       .  A
C1540      C1548   1.386       .  A
C1541      C1549   1.386       .  A
C1541      C1558   1.428       .  A
C1542      C1557   1.419       .  A
C1542      C1550   1.388       .  A
C1543      C1555   1.407       .  A
C1543      C1551   1.382       .  A
C1544      C1558   1.427       .  A
C1544      C1552   1.388       .  A
C1545      C1553   1.387       .  A
C1545      C1556   1.436       .  A
C1546      C1554   1.385       .  A
C1546      C1557   1.421       .  A
C1547      C1548   1.375       .  A
C1547      H1559   1.082       .  S
C1548      H1560   1.082       .  S
C1549      C1550   1.376       .  A
C1549      H1561   1.082       .  S
C1550      H1562   1.082       .  S
C1551      C1552   1.370       .  A
C1551      H1563   1.083       .  S
C1552      H1564   1.081       .  S
C1553      C1554   1.373       .  A
C1553      H1565   1.080       .  S
C1554      H1566   1.082       .  S
C1555      C1571   1.445       .  S
C1557      C1570   1.461       .  S
C1569      C1570   1.213       .  T
C1571      C1572   1.204       .  T
C1573      C1574   1.205       .  T
C1575      C1576   1.213       .  T
C1577      C1578   1.204       .  T
C1581      C1582   1.214       .  T
C1583      C1584   1.203       .  T
