geometry optimzed in LAMMPS
_audit_creation_date              2020-11-30 
_audit_creation_method            'lammps2cif' 
_symmetry_space_group_name_H-M    'P1' 
_symmetry_Int_Tables_number       1 
_symmetry_cell_setting            triclinic 
loop_ 
_symmetry_equiv_pos_as_xyz 
  x,y,z 
_cell_length_a                    32.893750994456866 
_cell_length_b                    43.763780663837416 
_cell_length_c                    32.908077511155284 
_cell_angle_alpha                 89.9493280839515 
_cell_angle_beta                  90.16844094024371 
_cell_angle_gamma                 90.02406239832082 
loop_ 
_atom_site_label 
_atom_site_type_symbol 
_atom_site_fract_x 
_atom_site_fract_y 
_atom_site_fract_z 
_atom_site_charge 
N1          N  0.31747648  0.81674378  0.58560360    -0.24490
N2          N  0.29797795  0.79526242  0.56507493    -0.32350
C3          C  0.28144057  0.77533653  0.59156958     0.03850
C4          C  0.29100550  0.78495998  0.63042403     0.09880
C5          C  0.31389953  0.81112418  0.62561090    -0.03220
H6          H  0.26448887  0.75512317  0.58312824     0.10550
H7          H  0.32770531  0.82473041  0.64936792     0.11750
Cu8        Cu  0.29647218  0.79393423  0.50194959     0.44170
Cu9        Cu  0.34975150  0.85198086  0.55847047     0.41990
Cu10       Cu  0.35436112  0.85354808  0.44896820     0.43880
N11         N  0.30022482  0.79772866  0.43909705    -0.31870
N12         N  0.32110070  0.81919614  0.41988073    -0.26130
C13         C  0.31768942  0.81457830  0.37954645    -0.02230
C14         C  0.29351587  0.78916998  0.37327930     0.09990
C15         C  0.28305935  0.77896389  0.41151972     0.03780
H16         H  0.33228364  0.82840340  0.35654604     0.11440
H17         H  0.26490682  0.75911151  0.41885489     0.10510
N18         N  0.38473361  0.88495911  0.48597262    -0.33320
N19         N  0.38249534  0.88433414  0.52607374    -0.25500
C20         C  0.40605926  0.90663273  0.54148760    -0.00740
C21         C  0.42420866  0.92212626  0.50974237     0.07870
C22         C  0.41000185  0.90773693  0.47484671     0.05960
H23         H  0.41071419  0.91063460  0.57361119     0.11070
H24         H  0.41811695  0.91283220  0.44374864     0.09900
C25         C  0.28031519  0.75248232  0.26020137     0.03370
C26         C  0.24927348  0.73655479  0.24341509     0.03370
C27         C  0.28041146  0.74775833  0.74329807     0.03370
C28         C  0.24946530  0.73200031  0.76039704     0.03370
N29         N  0.21094212  0.66775423  0.08550414    -0.24490
N30         N  0.23110259  0.68898695  0.06522577    -0.32350
C31         C  0.24790771  0.70867158  0.09191761     0.03850
C32         C  0.23782745  0.69916529  0.13065463     0.09880
C33         C  0.21435161  0.67330439  0.12556131    -0.03220
H34         H  0.26541097  0.72865210  0.08367877     0.10550
H35         H  0.20006820  0.65986146  0.14914881     0.11750
Cu36       Cu  0.23313018  0.69035039  0.00212729     0.44170
Cu37       Cu  0.17810884  0.63296380  0.05784054     0.41990
Cu38       Cu  0.17481000  0.63120899  0.94827419     0.43880
N39         N  0.22969131  0.68671894  0.93922849    -0.31870
N40         N  0.20869585  0.66541986  0.91973474    -0.26130
C41         C  0.21228977  0.67015728  0.87945769    -0.02230
C42         C  0.23670091  0.69546152  0.87350653     0.09990
C43         C  0.24711490  0.70549435  0.91187851     0.03780
H44         H  0.19759999  0.65651315  0.85627259     0.11440
H45         H  0.26536384  0.72526030  0.91945347     0.10510
N46         N  0.14336229  0.60017592  0.98484355    -0.33320
N47         N  0.14503272  0.60096847  0.02497923    -0.25500
C48         C  0.12068307  0.57909536  0.04013477    -0.00740
C49         C  0.10265273  0.56366684  0.00820237     0.07870
C50         C  0.11772105  0.57766725  0.97343800     0.05960
H51         H  0.11545449  0.57532805  0.07219817     0.11070
H52         H  0.10982705  0.57256997  0.94224420     0.09900
N53         N  0.71369950  0.81977585  0.41964133    -0.24490
N54         N  0.73393942  0.79816932  0.43937433    -0.32350
C55         C  0.75059066  0.77888175  0.41223659     0.03850
C56         C  0.74043563  0.78891081  0.37378650     0.09880
C57         C  0.71700166  0.81471622  0.37944590    -0.03220
H58         H  0.76787654  0.75867384  0.42002218     0.10550
H59         H  0.70245250  0.82834121  0.35613039     0.11750
Cu60       Cu  0.73675617  0.79439774  0.50224271     0.44170
Cu61       Cu  0.67980716  0.85425784  0.44739335     0.41990
Cu62       Cu  0.67558085  0.84868359  0.55624186     0.43880
N63         N  0.73328948  0.79565807  0.56521060    -0.31870
N64         N  0.71085264  0.81585575  0.58486163    -0.26130
C65         C  0.71376414  0.81056458  0.62500549    -0.02230
C66         C  0.73926091  0.78592766  0.63080515     0.09990
C67         C  0.75108213  0.77686596  0.59241246     0.03780
H68         H  0.69768891  0.82325063  0.64813901     0.11440
H69         H  0.77035905  0.75771837  0.58473331     0.10510
N70         N  0.64134012  0.87957573  0.52293884    -0.33320
N71         N  0.64367633  0.88279573  0.48306182    -0.25500
C72         C  0.61619463  0.90389805  0.47110389    -0.00740
C73         C  0.59551440  0.91406802  0.50519438     0.07870
C74         C  0.61197599  0.89792005  0.53727534     0.05960
H75         H  0.60959763  0.90962244  0.43977661     0.11070
H76         H  0.60217707  0.89853479  0.56861881     0.09900
C77         C  0.74950783  0.75160155  0.26103934     0.03370
C78         C  0.77993450  0.73573051  0.24335097     0.03370
C79         C  0.74965852  0.74910873  0.74387311     0.03370
C80         C  0.78024072  0.73281826  0.76085093     0.03370
N81         N  0.81772158  0.66878403  0.08527500    -0.24490
N82         N  0.79599364  0.68915516  0.06497779    -0.32350
C83         C  0.77829658  0.70831890  0.09163685     0.03850
C84         C  0.78944561  0.69929631  0.13033898     0.09880
C85         C  0.81444254  0.67431994  0.12528492    -0.03220
H86         H  0.75955077  0.72766929  0.08339220     0.10550
H87         H  0.82994603  0.66155261  0.14885160     0.11750
Cu88       Cu  0.79333885  0.69005437  0.00195031     0.44170
Cu89       Cu  0.85257509  0.63533899  0.05781059     0.41990
Cu90       Cu  0.85006512  0.62972764  0.94872493     0.43880
N91         N  0.79662461  0.68596865  0.93918509    -0.31870
N92         N  0.81686590  0.66421139  0.91993416    -0.26130
C93         C  0.81377584  0.66905946  0.87963054    -0.02230
C94         C  0.79044984  0.69489303  0.87343754     0.09990
C95         C  0.78017070  0.70513580  0.91165796     0.03780
H96         H  0.82829341  0.65523355  0.85662372     0.11440
H97         H  0.76285882  0.72538261  0.91902893     0.10510
N98         N  0.88479148  0.60083507  0.98546908    -0.33320
N99         N  0.88643109  0.60388357  0.02540942    -0.25500
C100        C  0.91469842  0.58479758  0.04046589    -0.00740
C101        C  0.93130841  0.56851310  0.00870625     0.07870
C102        C  0.91166747  0.57920617  0.97414503     0.05960
H103        H  0.92356266  0.58366580  0.07212436     0.11070
H104        H  0.91837252  0.57325775  0.94297385     0.09900
C105        C  0.51385487  0.97611781  0.48920276     0.03370
C106        C  0.51237202  0.00709325  0.49332561     0.03370
N107        N  0.70681422  0.16470384  0.57879737    -0.24490
N108        N  0.72782902  0.18634289  0.55999654    -0.32350
C109        C  0.74463173  0.20499987  0.58790694     0.03850
C110        C  0.73382590  0.19461397  0.62592347     0.09880
C111        C  0.70980215  0.16918281  0.61920776    -0.03220
H112        H  0.76264865  0.22499531  0.58092135     0.10550
H113        H  0.69485061  0.15533689  0.64195328     0.11750
Cu114      Cu  0.73230952  0.19127953  0.49732306     0.44170
Cu115      Cu  0.67299281  0.13057043  0.54947053     0.41990
Cu116      Cu  0.67480233  0.13721733  0.44053911     0.43880
N117        N  0.73089444  0.19117679  0.43417595    -0.31870
N118        N  0.70964115  0.17080370  0.41345709    -0.26130
C119        C  0.71331278  0.17655832  0.37352661    -0.02230
C120        C  0.73810400  0.20172038  0.36890920     0.09990
C121        C  0.74871765  0.21060541  0.40784698     0.03780
H122        H  0.69820349  0.16381036  0.34971172     0.11440
H123        H  0.76718300  0.23001809  0.41644534     0.10510
N124        N  0.63963681  0.10557171  0.47108634    -0.33320
N125        N  0.63926804  0.10200413  0.51098759    -0.25500
C126        C  0.61170783  0.08020948  0.52038734    -0.00740
C127        C  0.59386775  0.07005029  0.48453265     0.07870
C128        C  0.61214844  0.08679157  0.45416740     0.05960
H129        H  0.60335368  0.07376467  0.55099518     0.11070
H130        H  0.60495509  0.08615763  0.42207224     0.09900
C131        C  0.74919867  0.23861361  0.25600039     0.03370
C132        C  0.78007997  0.25452922  0.23903279     0.03370
C133        C  0.74525940  0.23150423  0.73903475     0.03370
C134        C  0.77607847  0.24737146  0.75628597     0.03370
N135        N  0.81915057  0.32159167  0.07897393    -0.24490
N136        N  0.79780904  0.30008100  0.06019286    -0.32350
C137        C  0.78085031  0.28155758  0.08810412     0.03850
C138        C  0.79187090  0.29186584  0.12612599     0.09880
C139        C  0.81620467  0.31713713  0.11940300    -0.03220
H140        H  0.76258027  0.26168101  0.08111233     0.10550
H141        H  0.83139044  0.33088058  0.14216157     0.11750
Cu142      Cu  0.79302026  0.29498019  0.99755781     0.44170
Cu143      Cu  0.85332896  0.35550835  0.04953276     0.41990
Cu144      Cu  0.85060645  0.34849022  0.94066291     0.43880
N145        N  0.79422285  0.29478910  0.93442665    -0.31870
N146        N  0.81555356  0.31503388  0.91366042    -0.26130
C147        C  0.81186505  0.30917743  0.87376489    -0.02230
C148        C  0.78697257  0.28407105  0.86920872     0.09990
C149        C  0.77631064  0.27532086  0.90815030     0.03780
H150        H  0.82705890  0.32180132  0.84994691     0.11440
H151        H  0.75778265  0.25596914  0.91678932     0.10510
N152        N  0.88634356  0.37996684  0.97079232    -0.33320
N153        N  0.88712684  0.38372764  0.01065062    -0.25500
C154        C  0.91513532  0.40532788  0.01966440    -0.00740
C155        C  0.93278511  0.41512537  0.98360196     0.07870
C156        C  0.91397718  0.39837419  0.95353489     0.05960
H157        H  0.92396691  0.41182365  0.05015559     0.11070
H158        H  0.92093961  0.39869907  0.92142229     0.09900
C159        C  0.24551881  0.25278746  0.76093803     0.03370
C160        C  0.27615462  0.23680436  0.74373199     0.03370
N161        N  0.20960438  0.32071807  0.92046921    -0.24490
N162        N  0.22974984  0.29878594  0.93965815    -0.32350
C163        C  0.24603322  0.27970318  0.91205114     0.03850
C164        C  0.23575500  0.29016851  0.87384052     0.09880
C165        C  0.21260318  0.31605827  0.88013805    -0.03220
H166        H  0.26324622  0.25936337  0.91935573     0.10550
H167        H  0.19815778  0.33006889  0.85716346     0.11750
Cu168      Cu  0.23321461  0.29431296  0.00246248     0.44170
Cu169      Cu  0.17674029  0.35530077  0.94931278     0.41990
Cu170      Cu  0.17487517  0.34898112  0.05847469     0.43880
N171        N  0.23079428  0.29473970  0.06555194    -0.31870
N172        N  0.20928098  0.31507212  0.08596834    -0.26130
C173        C  0.21277041  0.30932324  0.12596430    -0.02230
C174        C  0.23770309  0.28424719  0.13088976     0.09990
C175        C  0.24857274  0.27540496  0.09210451     0.03780
H176        H  0.19759767  0.32209460  0.14961809     0.11440
H177        H  0.26730191  0.25611482  0.08373918     0.10510
N178        N  0.14176084  0.38125256  0.02629908    -0.33320
N179        N  0.14299360  0.38451441  0.98636864    -0.25500
C180        C  0.11667207  0.40672762  0.97541151    -0.00740
C181        C  0.09788729  0.41761917  0.01022275     0.07870
C182        C  0.11438889  0.40080946  0.04169752     0.05960
H183        H  0.10975183  0.41299412  0.94434128     0.11070
H184        H  0.10597501  0.40190145  0.07342607     0.09900
N185        N  0.31515913  0.16865734  0.58643214    -0.24490
N186        N  0.29387600  0.18910810  0.56580469    -0.32350
C187        C  0.27623421  0.20853903  0.59217988     0.03850
C188        C  0.28694356  0.19963171  0.63107000     0.09880
C189        C  0.31164026  0.17442217  0.62638603    -0.03220
H190        H  0.25777074  0.22796774  0.58362555     0.10550
H191        H  0.32672493  0.16161304  0.65018102     0.11750
Cu192      Cu  0.29172798  0.18962665  0.50269078     0.44170
Cu193      Cu  0.34965003  0.13471607  0.55933056     0.41990
Cu194      Cu  0.34878810  0.12870647  0.45025883     0.43880
N195        N  0.29555053  0.18514653  0.43993771    -0.31870
N196        N  0.31587070  0.16325530  0.42101264    -0.26130
C197        C  0.31304489  0.16792583  0.38063744    -0.02230
C198        C  0.28983775  0.19377731  0.37403732     0.09990
C199        C  0.27933454  0.20420559  0.41211836     0.03780
H200        H  0.32763976  0.15394905  0.35784426     0.11440
H201        H  0.26200407  0.22450367  0.41919988     0.10510
N202        N  0.38268209  0.09958149  0.48767206    -0.33320
N203        N  0.38353233  0.10273988  0.52762522    -0.25500
C204        C  0.41118016  0.08344254  0.54335044    -0.00740
C205        C  0.42827012  0.06688297  0.51206916     0.07870
C206        C  0.40952170  0.07767627  0.47703177     0.05960
H207        H  0.41940485  0.08239046  0.57518381     0.11070
H208        H  0.41684586  0.07160130  0.44604621     0.09900
C209        C  0.24928236  0.24726168  0.24374211     0.03370
C210        C  0.27993443  0.23114007  0.26093090     0.03370
C211        C  0.01396437  0.50887293  0.98646442     0.03370
C212        C  0.01483113  0.47790273  0.99020377     0.03370
C213        C  0.51427916  0.97704985  0.00000176     0.03370
C214        C  0.51396914  0.00777211  0.99989456     0.03370
N215        N  0.43280556  0.17257540  0.18757240    -0.24490
N216        N  0.45217135  0.19644656  0.20286985    -0.32350
C217        C  0.42462924  0.21642662  0.21717594     0.03850
C218        C  0.38642379  0.20446814  0.21011079     0.09880
C219        C  0.39255534  0.17667905  0.19156611    -0.03220
H220        H  0.43193996  0.23758152  0.23250254     0.10550
H221        H  0.36962690  0.16023294  0.18270324     0.11750
Cu222      Cu  0.51508492  0.20007455  0.20463227     0.44170
Cu223      Cu  0.46144200  0.13496272  0.16334453     0.41990
Cu224      Cu  0.57085904  0.13614931  0.16209267     0.43880
N225        N  0.57805719  0.19809695  0.20130532    -0.31870
N226        N  0.59823535  0.17474898  0.18574061    -0.26130
C227        C  0.63835087  0.18022251  0.18864126    -0.02230
C228        C  0.64350728  0.20836610  0.20667134     0.09990
C229        C  0.60488549  0.21906523  0.21462901     0.03780
H230        H  0.66191530  0.16452391  0.17924362     0.11440
H231        H  0.59685095  0.24010791  0.22981185     0.10510
N232        N  0.53642412  0.10159906  0.13669883    -0.33320
N233        N  0.49624741  0.10120537  0.13728424    -0.25500
C234        C  0.48282913  0.07791367  0.11435531    -0.00740
C235        C  0.51620830  0.06301674  0.09885429     0.07870
C236        C  0.54970722  0.07853838  0.11332330     0.05960
H237        H  0.45121052  0.07360630  0.10714728     0.11070
H238        H  0.58116221  0.07478857  0.10514776     0.09900
N239        N  0.59304109  0.17346881  0.81384313    -0.24490
N240        N  0.57350433  0.19730453  0.79865754    -0.32350
C241        C  0.60088997  0.21738160  0.78423726     0.03850
C242        C  0.63914871  0.20550235  0.79113474     0.09880
C243        C  0.63323559  0.17768338  0.80968905    -0.03220
H244        H  0.59342845  0.23845828  0.76874937     0.10550
H245        H  0.65625308  0.16120649  0.81821891     0.11750
Cu246      Cu  0.51061788  0.20055193  0.79670422     0.44170
Cu247      Cu  0.56481459  0.13553739  0.83751338     0.41990
Cu248      Cu  0.45555015  0.13582035  0.83823186     0.43880
N249        N  0.44770956  0.19792542  0.79951194    -0.31870
N250        N  0.42779995  0.17428924  0.81473210    -0.26130
C251        C  0.38762934  0.17931557  0.81140769    -0.02230
C252        C  0.38216352  0.20745962  0.79344228     0.09990
C253        C  0.42065041  0.21864226  0.78598032     0.03780
H254        H  0.36426259  0.16329553  0.82040199     0.11440
H255        H  0.42845449  0.23981424  0.77093585     0.10510
N256        N  0.49027462  0.10130865  0.86321991    -0.33320
N257        N  0.53044772  0.10124676  0.86277209    -0.25500
C258        C  0.54411907  0.07790106  0.88545761    -0.00740
C259        C  0.51089743  0.06262038  0.90065438     0.07870
C260        C  0.47722752  0.07796673  0.88628055     0.05960
H261        H  0.57576421  0.07386778  0.89283063     0.11070
H262        H  0.44581425  0.07395025  0.89441378     0.09900
N263        N  0.59721891  0.81175122  0.18779716    -0.24490
N264        N  0.57746253  0.78802673  0.20295113    -0.32350
C265        C  0.60465396  0.76774691  0.21736480     0.03850
C266        C  0.64303971  0.77935333  0.21052927     0.09880
C267        C  0.63739166  0.80724307  0.19200310    -0.03220
H268        H  0.59698591  0.74662774  0.23261029     0.10550
H269        H  0.66060105  0.82347933  0.18328878     0.11750
Cu270      Cu  0.51456538  0.78492534  0.20455727     0.44170
Cu271      Cu  0.56932146  0.84975556  0.16349762     0.41990
Cu272      Cu  0.46015331  0.84960841  0.16234565     0.43880
N273        N  0.45169766  0.78783951  0.20151508    -0.31870
N274        N  0.43207943  0.81150240  0.18593676    -0.26130
C275        C  0.39187508  0.80697638  0.18953162    -0.02230
C276        C  0.38605835  0.77913318  0.20808925     0.09990
C277        C  0.42437447  0.76758409  0.21560118     0.03780
H278        H  0.36875704  0.82325385  0.18060341     0.11440
H279        H  0.43189900  0.74660516  0.23129429     0.10510
N280        N  0.49476329  0.88394394  0.13731741    -0.33320
N281        N  0.53493650  0.88399195  0.13769173    -0.25500
C282        C  0.54840505  0.90724099  0.11474013    -0.00740
C283        C  0.51501867  0.92243913  0.09952290     0.07870
C284        C  0.48150350  0.90715985  0.11413426     0.05960
H285        H  0.57997750  0.91127399  0.10725005     0.11070
H286        H  0.45001024  0.91110769  0.10606157     0.09900
N287        N  0.43205665  0.81014334  0.81426657    -0.24490
N288        N  0.45199416  0.78655147  0.79906845    -0.32350
C289        C  0.42493683  0.76581259  0.78557013     0.03850
C290        C  0.38643148  0.77694779  0.79305473     0.09880
C291        C  0.39189006  0.80508109  0.81098194    -0.03220
H292        H  0.43274748  0.74464334  0.77058294     0.10550
H293        H  0.36851651  0.82106120  0.82001432     0.11750
Cu294      Cu  0.51497375  0.78407812  0.79656596     0.44170
Cu295      Cu  0.45984957  0.84851612  0.83781894     0.41990
Cu296      Cu  0.56939533  0.84888431  0.83829542     0.43880
N297        N  0.57792448  0.78704911  0.79930865    -0.31870
N298        N  0.59762039  0.81075248  0.81467125    -0.26130
C299        C  0.63784192  0.80599957  0.81144402    -0.02230
C300        C  0.64358202  0.77795579  0.79338046     0.09990
C301        C  0.60518531  0.76655303  0.78577144     0.03780
H302        H  0.66105225  0.82212907  0.82060076     0.11440
H303        H  0.59757654  0.74536782  0.77066515     0.10510
N304        N  0.53447043  0.88302603  0.86361179    -0.33320
N305        N  0.49428140  0.88289015  0.86340668    -0.25500
C306        C  0.48074137  0.90613007  0.88629132    -0.00740
C307        C  0.51406187  0.92153219  0.90131612     0.07870
C308        C  0.54763216  0.90636407  0.88663702     0.05960
H309        H  0.44915656  0.91008341  0.89378366     0.11070
H310        H  0.57913531  0.91054757  0.89445330     0.09900
N311        N  0.09805738  0.67464407  0.31496644    -0.24490
N312        N  0.07812119  0.69819821  0.29949089    -0.32350
C313        C  0.10517264  0.71889487  0.28599768     0.03850
C314        C  0.14366929  0.70777399  0.29377580     0.09880
C315        C  0.13821998  0.67969049  0.31186650    -0.03220
H316        H  0.09736241  0.73998819  0.27072346     0.10550
H317        H  0.16159290  0.66369685  0.32103964     0.11750
Cu318      Cu  0.01517422  0.70063689  0.29636861     0.44170
Cu319      Cu  0.07030955  0.63625377  0.33839939     0.41990
Cu320      Cu  0.96081780  0.63570317  0.33745826     0.43880
N321        N  0.95224515  0.69756609  0.29843536    -0.31870
N322        N  0.93257493  0.67379636  0.31358117    -0.26130
C323        C  0.89235482  0.67850078  0.31006188    -0.02230
C324        C  0.88659361  0.70657882  0.29202012     0.09990
C325        C  0.92496734  0.71806516  0.28473708     0.03780
H326        H  0.86916381  0.66234596  0.31908593     0.11440
H327        H  0.93255144  0.73933553  0.26982679     0.10510
N328        N  0.99563916  0.60160004  0.36321016    -0.33320
N329        N  0.03582453  0.60180202  0.36355938    -0.25500
C330        C  0.04924864  0.57857169  0.38665947    -0.00740
C331        C  0.01584787  0.56311238  0.40123268     0.07870
C332        C  0.98235714  0.57823206  0.38607548     0.05960
H333        H  0.08078117  0.57467250  0.39461293     0.11070
H334        H  0.95080770  0.57400929  0.39348298     0.09900
N335        N  0.93318695  0.31159835  0.31410886    -0.24490
N336        N  0.95244292  0.28772655  0.29883689    -0.32350
C337        C  0.92479682  0.26780628  0.28439481     0.03850
C338        C  0.88666543  0.27982498  0.29137442     0.09880
C339        C  0.89293036  0.30756576  0.30999407    -0.03220
H340        H  0.93198905  0.24674473  0.26883930     0.10550
H341        H  0.87010196  0.32411706  0.31859517     0.11750
Cu342      Cu  0.01532661  0.28426274  0.29683852     0.44170
Cu343      Cu  0.96186328  0.34934453  0.33784836     0.41990
Cu344      Cu  0.07111320  0.34865027  0.33875011     0.43880
N345        N  0.07829637  0.28668464  0.29964365    -0.31870
N346        N  0.09844935  0.31017876  0.31500323    -0.26290
C347        C  0.13857019  0.30502716  0.31163804    -0.02230
C348        C  0.14375813  0.27695035  0.29350130     0.09990
C349        C  0.10515189  0.26593900  0.28598306     0.03780
H350        H  0.16209141  0.32091877  0.32073862     0.11440
H351        H  0.09712731  0.24485858  0.27082997     0.10510
N352        N  0.03673400  0.38324611  0.36374659    -0.33320
N353        N  0.99656021  0.38346223  0.36319828    -0.25500
C354        C  0.98312116  0.40685186  0.38580684    -0.00740
C355        C  0.01649305  0.42200183  0.40106343     0.07870
C356        C  0.05001521  0.40653080  0.38680468     0.05960
H357        H  0.95152608  0.41101841  0.39306261     0.11070
H358        H  0.08148755  0.41044535  0.39497899     0.09900
N359        N  0.92723532  0.31062329  0.68595218    -0.24490
N360        N  0.94725981  0.28713165  0.70151006    -0.32350
C361        C  0.92029768  0.26635598  0.71496492     0.03850
C362        C  0.88175408  0.27733659  0.70710881     0.09880
C363        C  0.88708463  0.30543611  0.68899040    -0.03220
H364        H  0.92820354  0.24525564  0.73017331     0.10550
H365        H  0.86363014  0.32130176  0.67963450     0.11750
Cu366      Cu  0.01020003  0.28466820  0.70473701     0.44170
Cu367      Cu  0.95481226  0.34906346  0.66220457     0.41990
Cu368      Cu  0.06416846  0.34959017  0.66380388     0.43880
N369        N  0.07311308  0.28789548  0.70292352    -0.31870
N370        N  0.09259644  0.31172548  0.68773201    -0.26130
C371        C  0.13282683  0.30740419  0.69167025    -0.02230
C372        C  0.13882150  0.27951402  0.71007401     0.09990
C373        C  0.10056129  0.26771755  0.71712017     0.03780
H374        H  0.15584074  0.32378457  0.68291267     0.11440
H375        H  0.09316007  0.24655739  0.73239666     0.10510
N376        N  0.02968308  0.38362280  0.63776626    -0.33320
N377        N  0.98950659  0.38346252  0.63697556    -0.25500
C378        C  0.97644580  0.40661752  0.61350960    -0.00740
C379        C  0.01010378  0.42195012  0.59921532     0.07870
C380        C  0.04333072  0.40685079  0.61490193     0.05960
H381        H  0.94503017  0.41053817  0.60512618     0.11070
H382        H  0.07498407  0.41094695  0.60780826     0.09900
N383        N  0.93187751  0.67309856  0.68701594    -0.24490
N384        N  0.95170001  0.69677833  0.70226975    -0.32350
C385        C  0.92455465  0.71707584  0.71652544     0.03850
C386        C  0.88613192  0.70553371  0.70947452     0.09880
C387        C  0.89171658  0.67765550  0.69099708    -0.03220
H388        H  0.93227786  0.73812901  0.73190028     0.10550
H389        H  0.86847299  0.66142361  0.68225609     0.11750
Cu390      Cu  0.01463012  0.69973084  0.70439301     0.44170
Cu391      Cu  0.95965133  0.63501518  0.66305785     0.41990
Cu392      Cu  0.06880567  0.63486895  0.66282401     0.43880
N393        N  0.07751484  0.69664090  0.70187093    -0.31870
N394        N  0.09703665  0.67290828  0.68652727    -0.26130
C395        C  0.13726271  0.67735284  0.69031587    -0.02230
C396        C  0.14320451  0.70521346  0.70876095     0.09990
C397        C  0.10493026  0.71686150  0.71599806     0.03780
H398        H  0.16031429  0.66103586  0.68152378     0.11440
H399        H  0.09749714  0.73791290  0.73146506     0.10510
N400        N  0.03409284  0.60063913  0.63753147    -0.33320
N401        N  0.99391938  0.60069680  0.63758350    -0.25500
C402        C  0.98038812  0.57751642  0.61452132    -0.00740
C403        C  0.01373252  0.56225266  0.59956107     0.07870
C404        C  0.04728992  0.57742118  0.61444573     0.05960
H405        H  0.94881196  0.57358414  0.60677119     0.11070
H406        H  0.07877849  0.57340466  0.60661579     0.09900
C407        C  0.01431674  0.50770532  0.50008500     0.03370
C408        C  0.01381844  0.47698858  0.50004234     0.03370
C409        C  0.01357234  0.54074747  0.56700775    -0.10470
C410        C  0.01372436  0.52485171  0.53731842    -0.12030
C411        C  0.01204093  0.45967840  0.53718822    -0.10470
C412        C  0.01078577  0.44360882  0.56674860    -0.12030
C413        C  0.01608090  0.44374775  0.43333716    -0.10470
C414        C  0.01512731  0.45980141  0.46286200    -0.12030
C415        C  0.01580462  0.54125891  0.43348427    -0.10470
C416        C  0.01537440  0.52505427  0.46294268    -0.12030
C417        C  0.51153685  0.04092409  0.93303206    -0.10470
C418        C  0.51258852  0.02492049  0.96264221    -0.12030
C419        C  0.51580062  0.04128185  0.06649558    -0.10470
C420        C  0.51501166  0.02513156  0.03701533    -0.12030
C421        C  0.51494561  0.95991785  0.03728374    -0.10470
C422        C  0.51513921  0.94399651  0.06698468    -0.12030
C423        C  0.51389444  0.95967068  0.96288810    -0.10470
C424        C  0.51386782  0.94342321  0.93349285    -0.12030
C425        C  0.31660517  0.22406394  0.23898131    -0.10470
C426        C  0.34837240  0.21620892  0.22427051    -0.12030
C427        C  0.21291893  0.25506772  0.26581928    -0.10470
C428        C  0.18145713  0.26399370  0.28016376    -0.12030
C429        C  0.27823062  0.21959867  0.30219243    -0.10470
C430        C  0.28170138  0.20827784  0.33552648    -0.12030
C431        C  0.05386212  0.46055392  0.98724134    -0.13630
C432        C  0.06230259  0.43798343  0.01367104    -0.28800
H433        H  0.07535409  0.46624145  0.96339310     0.15390
H434        H  0.04208950  0.43419122  0.03926057     0.15970
C435        C  0.25089581  0.25832444  0.20224925    -0.10470
C436        C  0.24713508  0.26932380  0.16877446    -0.12030
C437        C  0.20868358  0.25975839  0.73900393    -0.10470
C438        C  0.17684467  0.26761488  0.72427043    -0.12030
C439        C  0.34431850  0.22031655  0.78012680    -0.10470
C440        C  0.31271691  0.22913544  0.76578050    -0.12030
C441        C  0.27427933  0.22572045  0.70227495    -0.10470
C442        C  0.27777513  0.21467542  0.66884556    -0.12030
C443        C  0.24397230  0.27565041  0.83545105    -0.10470
C444        C  0.24741236  0.26432372  0.80216960    -0.12030
C445        C  0.97666056  0.46016848  0.99780823    -0.13630
C446        C  0.96930824  0.43413534  0.97750325    -0.28800
H447        H  0.95424896  0.46893734  0.01900396     0.15390
H448        H  0.99013677  0.42712074  0.95368899     0.15970
C449        C  0.84395977  0.26428870  0.72009384    -0.10470
C450        C  0.81245196  0.25524669  0.73425211    -0.12030
C451        C  0.70861358  0.22464199  0.76108588    -0.10470
C452        C  0.67697785  0.21706953  0.77627914    -0.12030
C453        C  0.77779570  0.26899171  0.83144379    -0.10470
C454        C  0.77443991  0.25817954  0.79786236    -0.12030
C455        C  0.84862217  0.26847532  0.27652686    -0.10470
C456        C  0.81682404  0.26111899  0.26129342    -0.12030
C457        C  0.68127777  0.22166771  0.21953788    -0.10470
C458        C  0.71281342  0.23082020  0.23370695    -0.12030
C459        C  0.78296885  0.27764612  0.16463711    -0.10470
C460        C  0.77875774  0.26623185  0.19782384    -0.12030
C461        C  0.74261694  0.20882605  0.66445615    -0.10470
C462        C  0.74665211  0.22006679  0.69775094    -0.12030
C463        C  0.74729966  0.21673479  0.33109526    -0.10470
C464        C  0.75076756  0.22762295  0.29754922    -0.12030
C465        C  0.47305264  0.02415139  0.48998496    -0.13630
C466        C  0.46432992  0.04694649  0.51591617    -0.28800
H467        H  0.45152319  0.01805453  0.46623596     0.15390
H468        H  0.48456526  0.05118570  0.54147474     0.15970
C469        C  0.55017060  0.02528055  0.50086463    -0.13630
C470        C  0.55779949  0.05044647  0.47878079    -0.28800
H471        H  0.57206447  0.01749166  0.52339184     0.15390
H472        H  0.53741637  0.05630945  0.45390682     0.15970
C473        C  0.97492830  0.52599986  0.98505313    -0.13630
C474        C  0.96745790  0.54867251  0.01141563    -0.28800
H475        H  0.95252386  0.52002144  0.96206656     0.15390
H476        H  0.98856446  0.55279071  0.03626356     0.15970
C477        C  0.81678173  0.72565993  0.73874371    -0.10470
C478        C  0.84835983  0.71761061  0.72383346    -0.12030
C479        C  0.71319370  0.75670390  0.76592498    -0.10470
C480        C  0.68155711  0.76535907  0.78018921    -0.12030
C481        C  0.78210040  0.70958346  0.83515269    -0.10470
C482        C  0.77853671  0.72107448  0.80196166    -0.12030
C483        C  0.81678121  0.72797788  0.26486799    -0.10470
C484        C  0.84857959  0.71925073  0.27887246    -0.12030
C485        C  0.71260783  0.75898393  0.23944284    -0.10470
C486        C  0.68088069  0.76717751  0.22479375    -0.12030
C487        C  0.78059498  0.71414446  0.16825722    -0.10470
C488        C  0.77755350  0.72496063  0.20182638    -0.12030
C489        C  0.55780276  0.93220561  0.50683911    -0.13630
C490        C  0.55334001  0.95925921  0.48797840    -0.28800
H491        H  0.53351928  0.92351255  0.52590239     0.15390
H492        H  0.57898777  0.96927264  0.47203204     0.15970
C493        C  0.74871488  0.77405470  0.33569100    -0.10470
C494        C  0.75185927  0.76279466  0.30236959    -0.12030
C495        C  0.75141044  0.76036853  0.70252044    -0.10470
C496        C  0.74807574  0.77132070  0.66900296    -0.12030
C497        C  0.07085913  0.53987042  0.01231321    -0.13630
C498        C  0.05155755  0.52722825  0.98049267    -0.28800
H499        H  0.06111016  0.53393527  0.04284920     0.15390
H500        H  0.05994226  0.53329886  0.94966676     0.15970
C501        C  0.18116362  0.71710687  0.72311585    -0.10470
C502        C  0.21285932  0.72499707  0.73811231    -0.12030
C503        C  0.34855290  0.76406976  0.77984052    -0.10470
C504        C  0.31690510  0.75531230  0.76552158    -0.12030
C505        C  0.25067208  0.72078428  0.80184479    -0.10470
C506        C  0.24627575  0.70971946  0.83520529    -0.12030
C507        C  0.18149176  0.72050100  0.28040167    -0.10470
C508        C  0.21301586  0.72912675  0.26586656    -0.12030
C509        C  0.34820721  0.76726947  0.22252941    -0.10470
C510        C  0.31666497  0.75941912  0.23769382    -0.12030
C511        C  0.25041566  0.72528565  0.20200762    -0.10470
C512        C  0.24669292  0.71414707  0.16862353    -0.12030
C513        C  0.45531731  0.94642157  0.51409432    -0.13630
C514        C  0.47640867  0.95764741  0.48255804    -0.28800
H515        H  0.46352112  0.95354001  0.54467881     0.15390
H516        H  0.47010975  0.94982659  0.45191415     0.15970
C517        C  0.28402235  0.77501812  0.33485632    -0.10470
C518        C  0.27948197  0.76390288  0.30153863    -0.12030
C519        C  0.27886980  0.75879782  0.70177287    -0.10470
C520        C  0.28231323  0.76985867  0.66831682    -0.12030
loop_ 
_geom_bond_atom_site_label_1 
_geom_bond_atom_site_label_2 
_geom_bond_distance 
_geom_bond_site_symmetry_2 
_ccdc_geom_bond_type 
N1            N2   1.323       .  A
N1            C5   1.345       .  A
N1           Cu9   2.075       .  S
N2            C3   1.348       .  A
N2           Cu8   2.079       .  S
C3            C4   1.382       .  A
C3            H6   1.082       .  S
C4            C5   1.379       .  A
C4          C520   1.440       .  S
C5            H7   1.082       .  S
Cu8          N11   2.079       .  S
Cu9          N19   2.075       .  S
Cu10         N12   2.090       .  S
Cu10         N18   2.089       .  S
N11          N12   1.325       .  A
N11          C15   1.347       .  A
N12          C13   1.347       .  A
C13          C14   1.382       .  A
C13          H16   1.082       .  S
C14          C15   1.379       .  A
C14         C517   1.442       .  S
C15          H17   1.082       .  S
N18          N19   1.322       .  A
N18          C22   1.349       .  A
N19          C20   1.345       .  A
C20          C21   1.382       .  A
C20          H23   1.082       .  S
C21          C22   1.390       .  A
C21         C513   1.482       .  S
C22          H24   1.081       .  S
C25          C26   1.353       .  D
C25         C510   1.440       .  S
C25         C518   1.450       .  S
C26         C508   1.442       .  S
C26         C511   1.450       .  S
C27          C28   1.353       .  D
C27         C504   1.442       .  S
C27         C519   1.450       .  S
C28         C502   1.441       .  S
C28         C505   1.450       .  S
N29          N30   1.323       .  A
N29          C33   1.345       .  A
N29         Cu37   2.076       .  S
N30          C31   1.348       .  A
N30         Cu36   2.079       .  S
C31          C32   1.382       .  A
C31          H34   1.082       .  S
C32          C33   1.380       .  A
C32         C512   1.441       .  S
C33          H35   1.082       .  S
Cu36         N39   2.079   1_554  S
Cu37         N47   2.076       .  S
Cu38         N40   2.090       .  S
Cu38         N46   2.090       .  S
N39          N40   1.325       .  A
N39          C43   1.347       .  A
N40          C41   1.347       .  A
C41          C42   1.382       .  A
C41          H44   1.082       .  S
C42          C43   1.379       .  A
C42         C506   1.442       .  S
C43          H45   1.082       .  S
N46          N47   1.322   1_556  A
N46          C50   1.349       .  A
N47          C48   1.344       .  A
C48          C49   1.382       .  A
C48          H51   1.082       .  S
C49          C50   1.390   1_554  A
C49         C497   1.482       .  S
C50          H52   1.082       .  S
N53          N54   1.325       .  A
N53          C57   1.346       .  A
N53         Cu61   2.089       .  S
N54          C55   1.347       .  A
N54         Cu60   2.077       .  S
C55          C56   1.379       .  A
C55          H58   1.082       .  S
C56          C57   1.381       .  A
C56         C493   1.439       .  S
C57          H59   1.082       .  S
Cu60         N63   2.076       .  S
Cu61         N71   2.089       .  S
Cu62         N64   2.071       .  S
Cu62         N70   2.071       .  S
N63          N64   1.322       .  A
N63          C67   1.348       .  A
N64          C65   1.344       .  A
C65          C66   1.379       .  A
C65          H68   1.082       .  S
C66          C67   1.382       .  A
C66         C496   1.439       .  S
C67          H69   1.082       .  S
N70          N71   1.322       .  A
N70          C74   1.343       .  A
N71          C72   1.350       .  A
C72          C73   1.387       .  A
C72          H75   1.082       .  S
C73          C74   1.379       .  A
C73         C489   1.474       .  S
C74          H76   1.082       .  S
C77          C78   1.352       .  D
C77         C485   1.441       .  S
C77         C494   1.448       .  S
C78         C483   1.442       .  S
C78         C488   1.448       .  S
C79          C80   1.352       .  D
C79         C479   1.443       .  S
C79         C495   1.448       .  S
C80         C477   1.442       .  S
C80         C482   1.448       .  S
N81          N82   1.322       .  A
N81          C85   1.344       .  A
N81         Cu89   2.070       .  S
N82          C83   1.348       .  A
N82         Cu88   2.076       .  S
C83          C84   1.382       .  A
C83          H86   1.082       .  S
C84          C85   1.379       .  A
C84         C487   1.438       .  S
C85          H87   1.082       .  S
Cu88         N91   2.077   1_554  S
Cu89         N99   2.070       .  S
Cu90         N92   2.088       .  S
Cu90         N98   2.087       .  S
N91          N92   1.325       .  A
N91          C95   1.347       .  A
N92          C93   1.347       .  A
C93          C94   1.381       .  A
C93          H96   1.082       .  S
C94          C95   1.379       .  A
C94         C481   1.440       .  S
C95          H97   1.082       .  S
N98          N99   1.322   1_556  A
N98         C102   1.349       .  A
N99         C100   1.343       .  A
C100        C101   1.380       .  A
C100        H103   1.082       .  S
C101        C102   1.387   1_554  A
C101        C474   1.475       .  S
C102        H104   1.082       .  S
C105        C106   1.363   1_565  D
C105        C490   1.495       .  S
C105        C514   1.489       .  S
C106        C465   1.497       .  S
C106        C469   1.496       .  S
N107        N108   1.326       .  A
N107        C111   1.348       .  A
N107       Cu115   2.097       .  S
N108        C109   1.347       .  A
N108       Cu114   2.079       .  S
C109        C110   1.378       .  A
C109        H112   1.082       .  S
C110        C111   1.382       .  A
C110        C461   1.441       .  S
C111        H113   1.082       .  S
Cu114       N117   2.078       .  S
Cu115       N125   2.095       .  S
Cu116       N118   2.066       .  S
Cu116       N124   2.066       .  S
N117        N118   1.321       .  A
N117        C121   1.349       .  A
N118        C119   1.344       .  A
C119        C120   1.379       .  A
C119        H122   1.082       .  S
C120        C121   1.383       .  A
C120        C463   1.440       .  S
C121        H123   1.082       .  S
N124        N125   1.322       .  A
N124        C128   1.342       .  A
N125        C126   1.352       .  A
C126        C127   1.390       .  A
C126        H129   1.082       .  S
C127        C128   1.378       .  A
C127        C470   1.476       .  S
C128        H130   1.082       .  S
C131        C132   1.353       .  D
C131        C458   1.443       .  S
C131        C464   1.450       .  S
C132        C456   1.441       .  S
C132        C460   1.450       .  S
C133        C134   1.352       .  D
C133        C451   1.440       .  S
C133        C462   1.449       .  S
C134        C450   1.442       .  S
C134        C454   1.449       .  S
N135        N136   1.326       .  A
N135        C139   1.348       .  A
N135       Cu143   2.100       .  S
N136        C137   1.347       .  A
N136       Cu142   2.079   1_554  S
C137        C138   1.378       .  A
C137        H140   1.082       .  S
C138        C139   1.383       .  A
C138        C459   1.442       .  S
C139        H141   1.082       .  S
Cu142       N145   2.078       .  S
Cu143       N153   2.098       .  S
Cu144       N146   2.063       .  S
Cu144       N152   2.063       .  S
N145        N146   1.321       .  A
N145        C149   1.349       .  A
N146        C147   1.343       .  A
C147        C148   1.378       .  A
C147        H150   1.082       .  S
C148        C149   1.383       .  A
C148        C453   1.439       .  S
C149        H151   1.082       .  S
N152        N153   1.322   1_556  A
N152        C156   1.341       .  A
N153        C154   1.352       .  A
C154        C155   1.390   1_554  A
C154        H157   1.082       .  S
C155        C156   1.377       .  A
C155        C446   1.475       .  S
C156        H158   1.082       .  S
C159        C160   1.353       .  D
C159        C437   1.441       .  S
C159        C444   1.449       .  S
C160        C440   1.442       .  S
C160        C441   1.449       .  S
N161        N162   1.325       .  A
N161        C165   1.347       .  A
N161       Cu169   2.090       .  S
N162        C163   1.347       .  A
N162       Cu168   2.079   1_556  S
C163        C164   1.379       .  A
C163        H166   1.082       .  S
C164        C165   1.382       .  A
C164        C443   1.441       .  S
C165        H167   1.082       .  S
Cu168       N171   2.078       .  S
Cu169       N179   2.089       .  S
Cu170       N172   2.072       .  S
Cu170       N178   2.072       .  S
N171        N172   1.322       .  A
N171        C175   1.348       .  A
N172        C173   1.344       .  A
C173        C174   1.379       .  A
C173        H176   1.082       .  S
C174        C175   1.382       .  A
C174        C436   1.440       .  S
C175        H177   1.082       .  S
N178        N179   1.322   1_554  A
N178        C182   1.343       .  A
N179        C180   1.350       .  A
C180        C181   1.388   1_556  A
C180        H183   1.082       .  S
C181        C182   1.380       .  A
C181        C432   1.476       .  S
C182        H184   1.082       .  S
N185        N186   1.322       .  A
N185        C189   1.344       .  A
N185       Cu193   2.073       .  S
N186        C187   1.348       .  A
N186       Cu192   2.078       .  S
C187        C188   1.382       .  A
C187        H190   1.082       .  S
C188        C189   1.379       .  A
C188        C442   1.440       .  S
C189        H191   1.082       .  S
Cu192       N195   2.079       .  S
Cu193       N203   2.074       .  S
Cu194       N196   2.092       .  S
Cu194       N202   2.091       .  S
N195        N196   1.325       .  A
N195        C199   1.347       .  A
N196        C197   1.347       .  A
C197        C198   1.382       .  A
C197        H200   1.082       .  S
C198        C199   1.379       .  A
C198        C430   1.441       .  S
C199        H201   1.082       .  S
N202        N203   1.322       .  A
N202        C206   1.351       .  A
N203        C204   1.344       .  A
C204        C205   1.381       .  A
C204        H207   1.082       .  S
C205        C206   1.389       .  A
C205        C466   1.478       .  S
C206        H208   1.082       .  S
C209        C210   1.353       .  D
C209        C427   1.443       .  S
C209        C435   1.449       .  S
C210        C425   1.442       .  S
C210        C429   1.450       .  S
C211        C212   1.361       .  D
C211        C473   1.488   1_455  S
C211        C498   1.488       .  S
C212        C431   1.495       .  S
C212        C445   1.497   1_455  S
C213        C214   1.345   1_564  D
C213        C421   1.437       .  S
C213        C423   1.439   1_554  S
C214        C418   1.437       .  S
C214        C420   1.439   1_556  S
N215        N216   1.323       .  A
N215        C219   1.343       .  A
N215       Cu223   2.059       .  S
N216        C217   1.346       .  A
N216       Cu222   2.076       .  S
C217        C218   1.380       .  A
C217        H220   1.081       .  S
C218        C219   1.376       .  A
C218        C426   1.433       .  S
C219        H221   1.082       .  S
Cu222       N225   2.076       .  S
Cu223       N233   2.059       .  S
Cu224       N226   2.066       .  S
Cu224       N232   2.065       .  S
N225        N226   1.323       .  A
N225        C229   1.346       .  A
N226        C227   1.344       .  A
C227        C228   1.378       .  A
C227        H230   1.082       .  S
C228        C229   1.380       .  A
C228        C457   1.435       .  S
C229        H231   1.081       .  S
N232        N233   1.322       .  A
N232        C236   1.343       .  A
N233        C234   1.342       .  A
C234        C235   1.377       .  A
C234        H237   1.083       .  S
C235        C236   1.378       .  A
C235        C419   1.428       .  S
C236        H238   1.082       .  S
N239        N240   1.322       .  A
N239        C243   1.342       .  A
N239       Cu247   2.056       .  S
N240        C241   1.345       .  A
N240       Cu246   2.074       .  S
C241        C242   1.380       .  A
C241        H244   1.081       .  S
C242        C243   1.376       .  A
C242        C452   1.430       .  S
C243        H245   1.082       .  S
Cu246       N249   2.075       .  S
Cu247       N257   2.055       .  S
Cu248       N250   2.064       .  S
Cu248       N256   2.063       .  S
N249        N250   1.323       .  A
N249        C253   1.345       .  A
N250        C251   1.344       .  A
C251        C252   1.377       .  A
C251        H254   1.082       .  S
C252        C253   1.380       .  A
C252        C439   1.434       .  S
C253        H255   1.081       .  S
N256        N257   1.322       .  A
N256        C260   1.343       .  A
N257        C258   1.342       .  A
C258        C259   1.376       .  A
C258        H261   1.083       .  S
C259        C260   1.378       .  A
C259        C417   1.427       .  S
C260        H262   1.082       .  S
N263        N264   1.323       .  A
N263        C267   1.343       .  A
N263       Cu271   2.060       .  S
N264        C265   1.345       .  A
N264       Cu270   2.074       .  S
C265        C266   1.380       .  A
C265        H268   1.081       .  S
C266        C267   1.376       .  A
C266        C486   1.432       .  S
C267        H269   1.082       .  S
Cu270       N273   2.074       .  S
Cu271       N281   2.059       .  S
Cu272       N274   2.058       .  S
Cu272       N280   2.058       .  S
N273        N274   1.323       .  A
N273        C277   1.345       .  A
N274        C275   1.343       .  A
C275        C276   1.376       .  A
C275        H278   1.082       .  S
C276        C277   1.380       .  A
C276        C509   1.431       .  S
C277        H279   1.081       .  S
N280        N281   1.321       .  A
N280        C284   1.342       .  A
N281        C282   1.342       .  A
C282        C283   1.377       .  A
C282        H285   1.082       .  S
C283        C284   1.377       .  A
C283        C422   1.426       .  S
C284        H286   1.083       .  S
N287        N288   1.323       .  A
N287        C291   1.344       .  A
N287       Cu295   2.062       .  S
N288        C289   1.346       .  A
N288       Cu294   2.076       .  S
C289        C290   1.380       .  A
C289        H292   1.081       .  S
C290        C291   1.377       .  A
C290        C503   1.434       .  S
C291        H293   1.082       .  S
Cu294       N297   2.076       .  S
Cu295       N305   2.062       .  S
Cu296       N298   2.064       .  S
Cu296       N304   2.063       .  S
N297        N298   1.323       .  A
N297        C301   1.346       .  A
N298        C299   1.344       .  A
C299        C300   1.377       .  A
C299        H302   1.082       .  S
C300        C301   1.380       .  A
C300        C480   1.434       .  S
C301        H303   1.081       .  S
N304        N305   1.322       .  A
N304        C308   1.343       .  A
N305        C306   1.343       .  A
C306        C307   1.377       .  A
C306        H309   1.083       .  S
C307        C308   1.378       .  A
C307        C424   1.429       .  S
C308        H310   1.083       .  S
N311        N312   1.323       .  A
N311        C315   1.343       .  A
N311       Cu319   2.062       .  S
N312        C313   1.345       .  A
N312       Cu318   2.076       .  S
C313        C314   1.380       .  A
C313        H316   1.081       .  S
C314        C315   1.377       .  A
C314        C507   1.433       .  S
C315        H317   1.082       .  S
Cu318       N321   2.076   1_455  S
Cu319       N329   2.061       .  S
Cu320       N322   2.063       .  S
Cu320       N328   2.062       .  S
N321        N322   1.323       .  A
N321        C325   1.346       .  A
N322        C323   1.344       .  A
C323        C324   1.377       .  A
C323        H326   1.082       .  S
C324        C325   1.380       .  A
C324        C484   1.434       .  S
C325        H327   1.081       .  S
N328        N329   1.322   1_655  A
N328        C332   1.343       .  A
N329        C330   1.343       .  A
C330        C331   1.377       .  A
C330        H333   1.083       .  S
C331        C332   1.377   1_455  A
C331        C415   1.428       .  S
C332        H334   1.083       .  S
N335        N336   1.322       .  A
N335        C339   1.342       .  A
N335       Cu343   2.056       .  S
N336        C337   1.346       .  A
N336       Cu342   2.075   1_655  S
C337        C338   1.380       .  A
C337        H340   1.081       .  S
C338        C339   1.376       .  A
C338        C455   1.431       .  S
C339        H341   1.082       .  S
Cu342       N345   2.076       .  S
Cu343       N353   2.055       .  S
Cu344       N346   2.064       .  S
Cu344       N352   2.063       .  S
N345        N346   1.323       .  A
N345        C349   1.346       .  A
N346        C347   1.344       .  A
C347        C348   1.377       .  A
C347        H350   1.082       .  S
C348        C349   1.380       .  A
C348        C428   1.434       .  S
C349        H351   1.081       .  S
N352        N353   1.322   1_455  A
N352        C356   1.343       .  A
N353        C354   1.342       .  A
C354        C355   1.376   1_655  A
C354        H357   1.083       .  S
C355        C356   1.378       .  A
C355        C413   1.427       .  S
C356        H358   1.082       .  S
N359        N360   1.323       .  A
N359        C363   1.344       .  A
N359       Cu367   2.065       .  S
N360        C361   1.345       .  A
N360       Cu366   2.076   1_655  S
C361        C362   1.380       .  A
C361        H364   1.081       .  S
C362        C363   1.378       .  A
C362        C449   1.434       .  S
C363        H365   1.082       .  S
Cu366       N369   2.075       .  S
Cu367       N377   2.064       .  S
Cu368       N370   2.058       .  S
Cu368       N376   2.057       .  S
N369        N370   1.322       .  A
N369        C373   1.346       .  A
N370        C371   1.343       .  A
C371        C372   1.376       .  A
C371        H374   1.082       .  S
C372        C373   1.380       .  A
C372        C438   1.432       .  S
C373        H375   1.081       .  S
N376        N377   1.322   1_455  A
N376        C380   1.342       .  A
N377        C378   1.343       .  A
C378        C379   1.378   1_655  A
C378        H381   1.083       .  S
C379        C380   1.376       .  A
C379        C412   1.428       .  S
C380        H382   1.083       .  S
N383        N384   1.323       .  A
N383        C387   1.343       .  A
N383       Cu391   2.060       .  S
N384        C385   1.345       .  A
N384       Cu390   2.075   1_655  S
C385        C386   1.380       .  A
C385        H388   1.081       .  S
C386        C387   1.376       .  A
C386        C478   1.432       .  S
C387        H389   1.082       .  S
Cu390       N393   2.075       .  S
Cu391       N401   2.059       .  S
Cu392       N394   2.059       .  S
Cu392       N400   2.058       .  S
N393        N394   1.323       .  A
N393        C397   1.345       .  A
N394        C395   1.343       .  A
C395        C396   1.376       .  A
C395        H398   1.082       .  S
C396        C397   1.380       .  A
C396        C501   1.432       .  S
C397        H399   1.081       .  S
N400        N401   1.321   1_455  A
N400        C404   1.342       .  A
N401        C402   1.342       .  A
C402        C403   1.377   1_655  A
C402        H405   1.083       .  S
C403        C404   1.377       .  A
C403        C409   1.427       .  S
C404        H406   1.083       .  S
C407        C408   1.344       .  D
C407        C410   1.438       .  S
C407        C416   1.439       .  S
C408        C411   1.439       .  S
C408        C414   1.438       .  S
C409        C410   1.200       .  T
C411        C412   1.201       .  T
C413        C414   1.200       .  T
C415        C416   1.201       .  T
C417        C418   1.200       .  T
C419        C420   1.201       .  T
C421        C422   1.200       .  T
C423        C424   1.201       .  T
C425        C426   1.203       .  T
C427        C428   1.204       .  T
C429        C430   1.208       .  T
C431        C432   1.344   1_556  D
C431        H433   1.086       .  S
C432        H434   1.087       .  S
C435        C436   1.208       .  T
C437        C438   1.203       .  T
C439        C440   1.204       .  T
C441        C442   1.208       .  T
C443        C444   1.208       .  T
C445        C446   1.343       .  D
C445        H447   1.087   1_556  S
C446        H448   1.087       .  S
C449        C450   1.204       .  T
C451        C452   1.202       .  T
C453        C454   1.207       .  T
C455        C456   1.202       .  T
C457        C458   1.205       .  T
C459        C460   1.209       .  T
C461        C462   1.208       .  T
C463        C464   1.208       .  T
C465        C466   1.345       .  D
C465        H467   1.086       .  S
C466        H468   1.087       .  S
C469        C470   1.343       .  D
C469        H471   1.087       .  S
C470        H472   1.087       .  S
C473        C474   1.342   1_556  D
C473        H475   1.087       .  S
C474        H476   1.086       .  S
C477        C478   1.203       .  T
C479        C480   1.204       .  T
C481        C482   1.207       .  T
C483        C484   1.204       .  T
C485        C486   1.203       .  T
C487        C488   1.207       .  T
C489        C490   1.344       .  D
C489        H491   1.086       .  S
C490        H492   1.087       .  S
C493        C494   1.207       .  T
C495        C496   1.207       .  T
C497        C498   1.343   1_554  D
C497        H499   1.087       .  S
C498        H500   1.085       .  S
C501        C502   1.203       .  T
C503        C504   1.204       .  T
C505        C506   1.209       .  T
C507        C508   1.204       .  T
C509        C510   1.202       .  T
C511        C512   1.208       .  T
C513        C514   1.343       .  D
C513        H515   1.087       .  S
C514        H516   1.085       .  S
C517        C518   1.209       .  T
C519        C520   1.208       .  T
