geometry optimzed in LAMMPS
_audit_creation_date              2020-11-30 
_audit_creation_method            'lammps2cif' 
_symmetry_space_group_name_H-M    'P1' 
_symmetry_Int_Tables_number       1 
_symmetry_cell_setting            triclinic 
loop_ 
_symmetry_equiv_pos_as_xyz 
  x,y,z 
_cell_length_a                    54.86582771 
_cell_length_b                    54.89995023006694 
_cell_length_c                    50.230537949383915 
_cell_angle_alpha                 90.0072157985918 
_cell_angle_beta                  90.05282645841933 
_cell_angle_gamma                 90.01131246190133 
loop_ 
_atom_site_label 
_atom_site_type_symbol 
_atom_site_fract_x 
_atom_site_fract_y 
_atom_site_fract_z 
_atom_site_charge 
N1          N  0.52732494  0.23588428  0.07642185    -0.27000
N2          N  0.51916596  0.21542657  0.08704450    -0.34900
C3          C  0.52877428  0.19641238  0.07381180     0.01300
C4          C  0.54406845  0.20540436  0.05429586     0.07300
C5          C  0.54280466  0.23046699  0.05653311    -0.05800
H6          H  0.52504903  0.17748410  0.07821796     0.08000
H7          H  0.55180304  0.24377560  0.04405866     0.09200
Cu8        Cu  0.49567807  0.21462079  0.11929511     0.44200
Cu9        Cu  0.51517589  0.26999053  0.08809708     0.42000
Cu10       Cu  0.46533527  0.27108302  0.13626931     0.43900
N11         N  0.47180501  0.21827776  0.15097174    -0.34400
N12         N  0.45971160  0.23849562  0.15647502    -0.28700
C13         C  0.44532680  0.23449910  0.17775308    -0.04800
C14         C  0.44889878  0.21076110  0.18619533     0.07400
C15         C  0.46578653  0.20104515  0.16879690     0.01200
H16         H  0.43354721  0.24800198  0.18671742     0.08900
H17         H  0.47298183  0.18269640  0.16887401     0.08000
N18         N  0.47962191  0.30195330  0.11801821    -0.35900
N19         N  0.49817667  0.30150604  0.10121386    -0.28000
C20         C  0.50447769  0.32449200  0.09507311    -0.03300
C21         C  0.48931529  0.34017781  0.10881107     0.05300
C22         C  0.47358735  0.32529740  0.12289723     0.03400
H23         H  0.51919270  0.32936437  0.08178870     0.08500
H24         H  0.45950904  0.33103096  0.13659976     0.07400
N25         N  0.52071280  0.61239119  0.10552218    -0.36300
N26         N  0.46789398  0.61396170  0.10530062    -0.56900
N27         N  0.46667108  0.56077387  0.10899583    -0.36300
N28         N  0.51962920  0.55931874  0.10634881    -0.56900
C29         C  0.51716082  0.63631796  0.10038539     0.27200
C30         C  0.54448502  0.60753003  0.10091100     0.27200
C31         C  0.44283760  0.56556531  0.10441851     0.27200
C32         C  0.47017526  0.53666135  0.10477459     0.27200
C33         C  0.47235643  0.63802415  0.10828885     0.35900
C34         C  0.44386838  0.61081255  0.10996162     0.35900
C35         C  0.54386869  0.56269251  0.10947217     0.35900
C36         C  0.51534095  0.53542268  0.11081740     0.35900
C37         C  0.53899813  0.64685342  0.09264350    -0.21600
C38         C  0.55624252  0.62868916  0.09295896    -0.21600
C39         C  0.43092970  0.54413820  0.09766963    -0.21600
C40         C  0.44818200  0.52591501  0.09785017    -0.21600
C41         C  0.45101432  0.65026980  0.11444343    -0.22700
C42         C  0.43294658  0.63303405  0.11546753    -0.22700
C43         C  0.55508077  0.54077355  0.11560406    -0.22700
C44         C  0.53701549  0.52348458  0.11639565    -0.22700
C45         C  0.49522384  0.64929482  0.10447292    -0.18000
C46         C  0.55625564  0.58498749  0.10550484    -0.18000
C47         C  0.49241072  0.52389215  0.10822096    -0.18000
C48         C  0.43128821  0.58845915  0.10765249    -0.18000
H49         H  0.54227385  0.66576443  0.08771604     0.14900
H50         H  0.57537224  0.63093014  0.08831193     0.14900
H51         H  0.41175859  0.54181948  0.09324218     0.14900
H52         H  0.44485996  0.50688215  0.09354047     0.14900
H53         H  0.44867060  0.66961798  0.11770255     0.13200
H54         H  0.41391022  0.63651338  0.11962610     0.13200
H55         H  0.57430526  0.53752578  0.11890386     0.13200
H56         H  0.53958322  0.50428271  0.12039614     0.13200
H57         H  0.50846976  0.60085216  0.11485901     0.26400
H58         H  0.47914449  0.57272282  0.11736304     0.26400
N59         N  0.84202956  0.55927602  0.15898423    -0.27000
N60         N  0.86291775  0.56899865  0.15127442    -0.34900
C61         C  0.88091324  0.56087095  0.16712862     0.01300
C62         C  0.87092447  0.54497754  0.18541037     0.07300
C63         C  0.84627551  0.54427155  0.17965851    -0.05800
H64         H  0.89991816  0.56580465  0.16513250     0.08000
H65         H  0.83240124  0.53395076  0.18999405     0.09200
Cu66       Cu  0.86632940  0.59202069  0.11892916     0.44200
Cu67       Cu  0.80864987  0.56786851  0.14180464     0.42000
Cu68       Cu  0.81027858  0.61324017  0.08929626     0.43900
N69         N  0.86498892  0.61466366  0.08608592    -0.34400
N70         N  0.84448546  0.62337948  0.07605150    -0.28700
C71         C  0.84975986  0.63790799  0.05530803    -0.04800
C72         C  0.87472608  0.63793157  0.05192097     0.07400
C73         C  0.88385689  0.62298783  0.07166097     0.01200
H74         H  0.83636427  0.64706353  0.04305948     0.08900
H75         H  0.90277926  0.61858199  0.07536944     0.08000
N76         N  0.77850769  0.59751618  0.10329829    -0.35900
N77         N  0.77786166  0.58086366  0.12230165    -0.28000
C78         C  0.75457926  0.57411236  0.12626852    -0.03300
C79         C  0.73994376  0.58684384  0.10861315     0.05300
C80         C  0.75570621  0.60174376  0.09462576     0.03400
H81         H  0.74872845  0.56095405  0.14096965     0.08500
H82         H  0.75098353  0.61453115  0.07906627     0.07400
N83         N  0.46447368  0.93761986  0.08295833    -0.27000
N84         N  0.47402119  0.95807028  0.09217125    -0.34900
C85         C  0.46557384  0.97687903  0.07766661     0.01300
C86         C  0.44972390  0.96781128  0.05866982     0.07300
C87         C  0.44932575  0.94289918  0.06268503    -0.05800
H88         H  0.47069246  0.99571730  0.08064841     0.08000
H89         H  0.43959321  0.92949633  0.05099208     0.09200
Cu90       Cu  0.49845226  0.95917708  0.12370044     0.44200
Cu91       Cu  0.47496740  0.90334044  0.09607772     0.42000
Cu92       Cu  0.52466138  0.90118816  0.14379531     0.43900
N93         N  0.52267176  0.95522798  0.15515217    -0.34400
N94         N  0.53290459  0.93430979  0.16195782    -0.28700
C95         C  0.54787272  0.93815805  0.18280775    -0.04800
C96         C  0.54666597  0.96255591  0.18963362     0.07400
C97         C  0.53053536  0.97281664  0.17171726     0.01200
H98         H  0.55838026  0.92412740  0.19266635     0.08900
H99         H  0.52502248  0.99171417  0.17066703     0.08000
N100        N  0.51059770  0.87054522  0.12471663    -0.35900
N101        N  0.49194927  0.87136621  0.10802354    -0.28000
C102        C  0.48646030  0.84859292  0.10016484    -0.03300
C103        C  0.50259052  0.83268613  0.11218495     0.05300
C104        C  0.51756931  0.84717981  0.12773865     0.03400
H105        H  0.47175081  0.84393794  0.08673522     0.08500
H106        H  0.53193479  0.84113995  0.14094080     0.07400
N107        N  0.14388894  0.55891273  0.07226780    -0.27000
N108        N  0.12333994  0.56806266  0.08169618    -0.34900
C109        C  0.10454549  0.55919479  0.06746660     0.01300
C110        C  0.11369446  0.54337593  0.04854631     0.07300
C111        C  0.13868131  0.54354426  0.05216993    -0.05800
H112        H  0.08560644  0.56369735  0.07087651     0.08000
H113        H  0.15212401  0.53377471  0.04059059     0.09200
Cu114      Cu  0.12172211  0.59153740  0.11407629     0.44200
Cu115      Cu  0.17801749  0.56936790  0.08587381     0.42000
Cu116      Cu  0.17870337  0.61744739  0.13586816     0.43900
N117        N  0.12488420  0.61472967  0.14657937    -0.34400
N118        N  0.14561047  0.62520744  0.15361442    -0.28700
C119        C  0.14165555  0.63963103  0.17480747    -0.04800
C120        C  0.11736530  0.63778847  0.18173008     0.07400
C121        C  0.10724771  0.62181897  0.16349740     0.01200
H122        H  0.15558364  0.65012628  0.18487534     0.08900
H123        H  0.08844092  0.61596360  0.16243742     0.08000
N124        N  0.20969331  0.60317651  0.11838499    -0.35900
N125        N  0.20947384  0.58554542  0.10044784    -0.28000
C126        C  0.23253380  0.58044823  0.09337312    -0.03300
C127        C  0.24798251  0.59577601  0.10729050     0.05300
C128        C  0.23289028  0.60966239  0.12329344     0.03400
H129        H  0.23767278  0.56668736  0.07901629     0.08500
H130        H  0.23835312  0.62332654  0.13763350     0.07400
N131        N  0.52899658  0.93329017  0.33393505    -0.27000
N132        N  0.52129930  0.95473883  0.34258301    -0.34900
C133        C  0.53055531  0.97229560  0.32688267     0.01300
C134        C  0.54507951  0.96148475  0.30775756     0.07300
C135        C  0.54383045  0.93675838  0.31288562    -0.05800
H136        H  0.52713952  0.99157202  0.32937441     0.08000
H137        H  0.55243909  0.92230990  0.30166323     0.09200
Cu138      Cu  0.49876354  0.95982040  0.37551832     0.44200
Cu139      Cu  0.51719799  0.90009409  0.34942482     0.42000
Cu140      Cu  0.47158736  0.90513557  0.40081782     0.43900
N141        N  0.47525177  0.95938299  0.40807904    -0.34400
N142        N  0.46453570  0.93920063  0.41636646    -0.28700
C143        C  0.44978359  0.94442340  0.43690086    -0.04800
C144        C  0.45154524  0.96902509  0.44215635     0.07400
C145        C  0.46788495  0.97803553  0.42357369     0.01200
H146        H  0.43895400  0.93116099  0.44756836     0.08900
H147        H  0.47367590  0.99675204  0.42122834     0.08000
N148        N  0.48307622  0.87226262  0.38532159    -0.35900
N149        N  0.49985494  0.87018759  0.36661384    -0.28000
C150        C  0.50385701  0.84636587  0.36202334    -0.03300
C151        C  0.48878564  0.83280954  0.37855992     0.05300
C152        C  0.47608339  0.84995294  0.39324184     0.03400
H153        H  0.51716764  0.83938596  0.34809629     0.08500
H154        H  0.46373796  0.84667624  0.40958635     0.07400
N155        N  0.46988106  0.56005495  0.40226366    -0.36300
N156        N  0.46958358  0.61332392  0.39895848    -0.56900
N157        N  0.52263630  0.61384527  0.40310074    -0.36300
N158        N  0.52291729  0.56041544  0.40310927    -0.56900
C159        C  0.44607846  0.56394930  0.39662914     0.27200
C160        C  0.47431641  0.53603608  0.39845857     0.27200
C161        C  0.51863182  0.63777999  0.39822839     0.27200
C162        C  0.54683405  0.60975974  0.40043178     0.27200
C163        C  0.44526437  0.60946762  0.40035435     0.35900
C164        C  0.47296891  0.63770131  0.40045963     0.35900
C165        C  0.51942611  0.53614147  0.40558260     0.35900
C166        C  0.54706487  0.56431347  0.40620095     0.35900
C167        C  0.43512730  0.54202839  0.38984343    -0.21600
C168        C  0.45291415  0.52445418  0.39098472    -0.21600
C169        C  0.54071648  0.64920745  0.39323351    -0.21600
C170        C  0.55847377  0.63156725  0.39461405    -0.21600
C171        C  0.43313287  0.63152583  0.40249461    -0.22700
C172        C  0.45063940  0.64938316  0.40245234    -0.22700
C173        C  0.54147704  0.52454555  0.41009329    -0.22700
C174        C  0.55897889  0.54236587  0.41044658    -0.22700
C175        C  0.43362636  0.58651582  0.39814904    -0.18000
C176        C  0.49691880  0.52401085  0.40213388    -0.18000
C177        C  0.55890196  0.58707617  0.40353512    -0.18000
C178        C  0.49572969  0.64979463  0.39858883    -0.18000
H179        H  0.41625166  0.53897292  0.38451994     0.14900
H180        H  0.45034140  0.50529912  0.38672057     0.14900
H181        H  0.54376584  0.66828265  0.38892697     0.14900
H182        H  0.57778325  0.63451125  0.39159673     0.14900
H183        H  0.41365715  0.63448840  0.40360372     0.13200
H184        H  0.44725582  0.66877905  0.40353799     0.13200
H185        H  0.54468475  0.50521494  0.41248354     0.13200
H186        H  0.57832822  0.53943082  0.41317351     0.13200
H187        H  0.48172580  0.57258608  0.41066595     0.26400
H188        H  0.50991411  0.60140879  0.40988151     0.26400
N189        N  0.14942481  0.62293285  0.32864555    -0.27000
N190        N  0.12827871  0.61396004  0.33667008    -0.34900
C191        C  0.11064937  0.62137574  0.31992392     0.01300
C192        C  0.12103781  0.63599763  0.30063504     0.07300
C193        C  0.14563228  0.63678823  0.30685173    -0.05800
H194        H  0.09155450  0.61681333  0.32195187     0.08000
H195        H  0.15977027  0.64634203  0.29607401     0.09200
Cu196      Cu  0.12369855  0.59214453  0.37011053     0.44200
Cu197      Cu  0.18259450  0.61419587  0.34665305     0.42000
Cu198      Cu  0.17852330  0.56822209  0.39879064     0.43900
N199        N  0.12375365  0.56820910  0.40214761    -0.34400
N200        N  0.14397043  0.55840897  0.41165508    -0.28700
C201        C  0.13820889  0.54275623  0.43125791    -0.04800
C202        C  0.11319582  0.54300679  0.43453728     0.07400
C203        C  0.10457612  0.55944194  0.41587278     0.01200
H204        H  0.15132841  0.53250983  0.44280967     0.08900
H205        H  0.08577985  0.56445494  0.41233423     0.08000
N206        N  0.21114029  0.58259853  0.38501379    -0.35900
N207        N  0.21273162  0.59945886  0.36628926    -0.28000
C208        C  0.23641944  0.60463957  0.36214482    -0.03300
C209        C  0.25040094  0.59059191  0.37931755     0.05300
C210        C  0.23370399  0.57668497  0.39328275     0.03400
H211        H  0.24288300  0.61716238  0.34713692     0.08500
H212        H  0.23767105  0.56331071  0.40850010     0.07400
N213        N  0.46774460  0.23881227  0.33206013    -0.27000
N214        N  0.47765994  0.21786540  0.33932863    -0.34900
C215        C  0.46985046  0.20020772  0.32277873     0.01300
C216        C  0.45395281  0.21043654  0.30453678     0.07300
C217        C  0.45296296  0.23490500  0.31105699    -0.05800
H218        H  0.47480364  0.18119054  0.32441690     0.08000
H219        H  0.44238552  0.24887343  0.30118269     0.09200
Cu220      Cu  0.50013709  0.21383121  0.37249748     0.44200
Cu221      Cu  0.47524115  0.27193706  0.35059210     0.42000
Cu222      Cu  0.51771436  0.26959767  0.40576925     0.43900
N223        N  0.52223058  0.21484125  0.40624169    -0.34400
N224        N  0.52962892  0.23534731  0.41747697    -0.28700
C225        C  0.54439818  0.23002281  0.43807079    -0.04800
C226        C  0.54600439  0.20497629  0.44022092     0.07400
C227        C  0.53162842  0.19589249  0.41985437     0.01200
H228        H  0.55266877  0.24339446  0.45107615     0.08900
H229        H  0.52840603  0.17693341  0.41513571     0.08000
N230        N  0.50208920  0.30160878  0.39188475    -0.35900
N231        N  0.48675429  0.30258016  0.37161482    -0.28000
C232        C  0.48084322  0.32601142  0.36702273    -0.03300
C233        C  0.49273241  0.34055510  0.38558424     0.05300
C234        C  0.50615486  0.32432907  0.40085085     0.03400
H235        H  0.46961334  0.33187201  0.35058086     0.08500
H236        H  0.51826169  0.32875319  0.41716440     0.07400
N237        N  0.84105460  0.55863561  0.32789253    -0.27000
N238        N  0.86223382  0.56680529  0.33681680    -0.34900
C239        C  0.88017121  0.55806328  0.32132707     0.01300
C240        C  0.86987445  0.54338243  0.30202502     0.07300
C241        C  0.84505525  0.54400384  0.30680488    -0.05800
H242        H  0.89934442  0.56194096  0.32408634     0.08000
H243        H  0.83091618  0.53506678  0.29538306     0.09200
Cu244      Cu  0.86637889  0.58917427  0.36983455     0.44200
Cu245      Cu  0.80768853  0.56920515  0.34368570     0.42000
Cu246      Cu  0.81157288  0.61560621  0.39518816     0.43900
N247        N  0.86576447  0.61246153  0.40236816    -0.34400
N248        N  0.84558119  0.62310411  0.41074601    -0.28700
C249        C  0.85090285  0.63782830  0.43130419    -0.04800
C250        C  0.87558822  0.63611411  0.43633722     0.07400
C251        C  0.88449865  0.61982034  0.41772360     0.01200
H252        H  0.83768787  0.64860205  0.44210808     0.08900
H253        H  0.90322202  0.61409074  0.41520660     0.08000
N254        N  0.77922253  0.60116456  0.38135395    -0.35900
N255        N  0.77763051  0.58402506  0.36292893    -0.28000
C256        C  0.75415081  0.57729948  0.36044954    -0.03300
C257        C  0.74050295  0.59057569  0.37853377     0.05300
C258        C  0.75691640  0.60576203  0.39110908    -0.00600
H259        H  0.74761505  0.56330300  0.34705968     0.08500
H260        H  0.75309067  0.61847162  0.40703045     0.07400
N261        N  0.03360327  0.73727197  0.33022104    -0.27000
N262        N  0.02527489  0.71629567  0.33941868    -0.34900
C263        C  0.03351643  0.69816581  0.32379985     0.01300
C264        C  0.04790892  0.70831207  0.30412026     0.07300
C265        C  0.04770704  0.73306435  0.30886122    -0.05800
H266        H  0.02929332  0.67907716  0.32653238     0.08000
H267        H  0.05643566  0.74708036  0.29710352     0.09200
Cu268      Cu  0.00245975  0.71361084  0.37220274     0.44200
Cu269      Cu  0.02389686  0.77088265  0.34541740     0.42000
Cu270      Cu  0.97788536  0.77134243  0.39611912     0.43900
N271        N  0.97758831  0.71673368  0.40309903    -0.34400
N272        N  0.96767456  0.73758739  0.41063953    -0.28700
C273        C  0.95174993  0.73329938  0.43040061    -0.04800
C274        C  0.95200681  0.70866728  0.43586272     0.07400
C275        C  0.96857874  0.69867087  0.41827345     0.01200
H276        H  0.94143209  0.74721803  0.44066400     0.08900
H277        H  0.97365227  0.67969229  0.41654637     0.08000
N278        N  0.99404119  0.80267572  0.38152901    -0.35900
N279        N  0.01097876  0.80243676  0.36286888    -0.28000
C280        C  0.01776292  0.82543487  0.35751722    -0.03300
C281        C  0.00473472  0.84093720  0.37393350     0.05300
C282        C  0.98967243  0.82586390  0.38869025     0.03400
H283        H  0.03056772  0.83039027  0.34211251     0.08500
H284        H  0.97644654  0.83136377  0.40348025     0.07400
N285        N  0.02609411  0.11433790  0.36396758    -0.36300
N286        N  0.97296753  0.11330987  0.36756264    -0.56900
N287        N  0.97430734  0.06012502  0.36972491    -0.36300
N288        N  0.02745153  0.06122966  0.36936879    -0.56900
C289        C  0.02150658  0.13843177  0.36685481     0.27200
C290        C  0.05027319  0.11090509  0.36779422     0.27200
C291        C  0.95036981  0.06392718  0.37454450     0.27200
C292        C  0.97908600  0.03644880  0.37498799     0.27200
C293        C  0.97604409  0.13734157  0.36260058     0.35900
C294        C  0.94878926  0.10877418  0.36554936     0.35900
C295        C  0.05149490  0.06531139  0.36554150     0.35900
C296        C  0.02423070  0.03683505  0.36804276     0.35900
C297        C  0.04319413  0.15055015  0.37201532    -0.21600
C298        C  0.06131139  0.13323491  0.37252931    -0.21600
C299        C  0.93970616  0.04223860  0.38268542    -0.21600
C300        C  0.95778787  0.02490503  0.38286613    -0.21600
C301        C  0.95366343  0.14816966  0.35770139    -0.22700
C302        C  0.93642268  0.13009204  0.35955083    -0.22700
C303        C  0.06366087  0.04336712  0.36233020    -0.22700
C304        C  0.04639375  0.02535163  0.36383838    -0.22700
C305        C  0.99851027  0.15003201  0.36412634    -0.18000
C306        C  0.06293338  0.08841377  0.36614730    -0.18000
C307        C  0.00179161  0.02458072  0.37163409    -0.18000
C308        C  0.93748544  0.08600071  0.37049377    -0.18000
H309        H  0.04575586  0.16990655  0.37502894     0.14900
H310        H  0.08046735  0.13675349  0.37598198     0.14900
H311        H  0.92077623  0.03912041  0.38770549     0.14900
H312        H  0.95545659  0.00591252  0.38806981     0.14900
H313        H  0.95009638  0.16717038  0.35347553     0.13200
H314        H  0.91697060  0.13243091  0.35702361     0.13200
H315        H  0.08299067  0.04059031  0.35930190     0.13200
H316        H  0.04981617  0.00599253  0.36221115     0.13200
H317        H  0.01379083  0.10125559  0.35718024     0.26400
H318        H  0.98614465  0.07234873  0.36049244     0.26400
N319        N  0.35065447  0.12291853  0.33306885    -0.27000
N320        N  0.37137562  0.11286500  0.34082395    -0.34900
C321        C  0.38939323  0.12043829  0.32461950     0.01300
C322        C  0.37950411  0.13630293  0.30613065     0.07300
C323        C  0.35496487  0.13750306  0.31210561    -0.05800
H324        H  0.40832282  0.11518984  0.32651066     0.08000
H325        H  0.34116247  0.14788490  0.30170567     0.09200
Cu326      Cu  0.37391939  0.09007142  0.37371315     0.44200
Cu327      Cu  0.31714795  0.11510865  0.34999440     0.42000
Cu328      Cu  0.31605599  0.06581829  0.39737434     0.43900
N329        N  0.37048539  0.06725447  0.40648220    -0.34400
N330        N  0.34962853  0.05733593  0.41404473    -0.28700
C331        C  0.35374979  0.04271765  0.43505517    -0.04800
C332        C  0.37826177  0.04383162  0.44126847     0.07400
C333        C  0.38833832  0.05960304  0.42286151     0.01200
H334        H  0.33982840  0.03245861  0.44538986     0.08900
H335        H  0.40730249  0.06478163  0.42116900     0.08000
N336        N  0.28481976  0.08223461  0.38243863    -0.35900
N337        N  0.28534189  0.10093547  0.36587349    -0.28000
C338        C  0.26237470  0.10791518  0.36048608    -0.03300
C339        C  0.24661195  0.09300556  0.37448257     0.05300
C340        C  0.26145457  0.07674091  0.38794389     0.03400
H341        H  0.25749220  0.12240926  0.34689837     0.08500
H342        H  0.25568819  0.06202580  0.40080662     0.07400
N343        N  0.95728695  0.43890845  0.32701441    -0.27000
N344        N  0.96667802  0.45950139  0.33606198    -0.34900
C345        C  0.95887817  0.47808792  0.32084905     0.01300
C346        C  0.94353175  0.46879000  0.30156884     0.07300
C347        C  0.94280306  0.44394355  0.30608815    -0.05800
H348        H  0.96378108  0.49698350  0.32384123     0.08000
H349        H  0.93299112  0.43045373  0.29459709     0.09200
Cu350      Cu  0.98923145  0.46160056  0.36893043     0.44200
Cu351      Cu  0.96637890  0.40474814  0.34208040     0.42000
Cu352      Cu  0.01307891  0.40449705  0.39342271     0.43900
N353        N  0.01223646  0.45901084  0.40137802    -0.34400
N354        N  0.02196839  0.43831162  0.40964485    -0.28700
C355        C  0.03714693  0.44307967  0.43007224    -0.04800
C356        C  0.03655937  0.46787387  0.43505415     0.07400
C357        C  0.02050186  0.47738864  0.41660909     0.01200
H358        H  0.04754608  0.42947498  0.44074655     0.08900
H359        H  0.01559844  0.49633189  0.41402788     0.08000
N360        N  0.99939167  0.37303905  0.37555305    -0.35900
N361        N  0.98205731  0.37307006  0.35722531    -0.28000
C362        C  0.97759116  0.34993738  0.34967600    -0.03300
C363        C  0.99309598  0.33460127  0.36359685     0.05300
C364        C  0.00639262  0.34990179  0.38009233     0.03400
H365        H  0.96439262  0.34469565  0.33471894     0.08500
H366        H  0.02023015  0.34459240  0.39431151     0.07400
N367        N  0.65002103  0.11311019  0.41661682    -0.27000
N368        N  0.62928664  0.10302809  0.40893071    -0.34900
C369        C  0.61100911  0.11186533  0.42389311     0.01300
C370        C  0.62061977  0.12859987  0.44156713     0.07300
C371        C  0.64539375  0.12904582  0.43637753    -0.05800
H372        H  0.59207777  0.10665508  0.42186525     0.08000
H373        H  0.65911093  0.13962971  0.44667596     0.09200
Cu374      Cu  0.62663724  0.07833691  0.37784711     0.44200
Cu375      Cu  0.68367332  0.10293399  0.40114341     0.42000
Cu376      Cu  0.68336384  0.05226361  0.35437562     0.43900
N377        N  0.62896590  0.05509770  0.34540921    -0.34400
N378        N  0.64948838  0.04468103  0.33759757    -0.28700
C379        C  0.64485048  0.03066551  0.31619838    -0.04800
C380        C  0.62036458  0.03272987  0.31000354     0.07400
C381        C  0.61083587  0.04836200  0.32889898     0.01200
H382        H  0.65844734  0.02032970  0.30545415     0.08900
H383        H  0.59210220  0.05430520  0.33063080     0.08000
N384        N  0.71504148  0.06797669  0.36948360    -0.35900
N385        N  0.71502242  0.08693889  0.38573994    -0.28000
C386        C  0.73818039  0.09371128  0.39049715    -0.03300
C387        C  0.75358016  0.07844974  0.37642104     0.05300
C388        C  0.73827896  0.06215332  0.36358664     0.03400
H389        H  0.74335701  0.10848515  0.40356293     0.08500
H390        H  0.74363239  0.04755418  0.35035761     0.07400
N391        N  0.96189357  0.44062161  0.16191063    -0.27000
N392        N  0.97021071  0.46137414  0.15211705    -0.34900
C393        C  0.96121028  0.47993787  0.16662468     0.01300
C394        C  0.94616971  0.47033834  0.18608563     0.07300
C395        C  0.94696736  0.44540875  0.18247756    -0.05800
H396        H  0.96493190  0.49899386  0.16292880     0.08000
H397        H  0.93774396  0.43171633  0.19423936     0.09200
Cu398      Cu  0.99243017  0.46320718  0.11863863     0.44200
Cu399      Cu  0.97197439  0.40670338  0.14758813     0.42000
Cu400      Cu  0.01304277  0.40558750  0.09099425     0.43900
N401        N  0.01432282  0.46026330  0.08499843    -0.34400
N402        N  0.02264641  0.43935074  0.07558373    -0.28700
C403        C  0.03717502  0.44385437  0.05456943    -0.04800
C404        C  0.03767832  0.46873576  0.05033381     0.07400
C405        C  0.02291913  0.47857369  0.06986498     0.01200
H406        H  0.04632388  0.43000944  0.04295250     0.08900
H407        H  0.01907763  0.49766582  0.07316342     0.08000
N408        N  0.99966271  0.37453319  0.10951581    -0.35900
N409        N  0.98490081  0.37498106  0.13028498    -0.28000
C410        C  0.97990792  0.35199383  0.13773924    -0.03300
C411        C  0.99177539  0.33622204  0.12055191     0.05300
C412        C  0.00431052  0.35121836  0.10310048     0.03400
H413        H  0.96901436  0.34733867  0.15489091     0.08500
H414        H  0.01591281  0.34557166  0.08682473     0.07400
N415        N  0.97067006  0.11645739  0.11246753    -0.36300
N416        N  0.97097146  0.06324980  0.11399998    -0.56900
N417        N  0.02355280  0.06362762  0.11103420    -0.36300
N418        N  0.02327646  0.11682169  0.11168779    -0.56900
C419        C  0.94716472  0.11200234  0.11884008     0.27200
C420        C  0.97484531  0.14039780  0.11695244     0.27200
C421        C  0.01950441  0.03977525  0.11621304     0.27200
C422        C  0.04722905  0.06819648  0.11660816     0.27200
C423        C  0.94680624  0.06706154  0.11128427     0.35900
C424        C  0.97463402  0.03926282  0.10955592     0.35900
C425        C  0.01940390  0.14083568  0.10762757     0.35900
C426        C  0.04732101  0.11297405  0.10793087     0.35900
C427        C  0.93610760  0.13344319  0.12702773    -0.21600
C428        C  0.95356572  0.15138043  0.12579304    -0.21600
C429        C  0.04096001  0.02892850  0.12467194    -0.21600
C430        C  0.05842940  0.04689696  0.12509080    -0.21600
C431        C  0.93502028  0.04535680  0.10543987    -0.22700
C432        C  0.95268179  0.02772714  0.10431478    -0.22700
C433        C  0.04112621  0.15234213  0.10129250    -0.22700
C434        C  0.05884204  0.13466838  0.10151240    -0.22700
C435        C  0.93497954  0.08950837  0.11569273    -0.18000
C436        C  0.99698051  0.15280978  0.11199156    -0.18000
C437        C  0.05935902  0.09068543  0.11283905    -0.18000
C438        C  0.99725541  0.02732697  0.11220204    -0.18000
H439        H  0.91731474  0.13598125  0.13294959     0.14900
H440        H  0.95078466  0.17038619  0.13062893     0.14900
H441        H  0.04377612  0.01002787  0.12995994     0.14900
H442        H  0.07732285  0.04445767  0.13070594     0.14900
H443        H  0.91567897  0.04246678  0.10257424     0.13200
H444        H  0.94965019  0.00855789  0.10050876     0.13200
H445        H  0.04401109  0.17153945  0.09753617     0.13200
H446        H  0.07808422  0.13754357  0.09795656     0.13200
H447        H  0.98227822  0.10449632  0.10275339     0.26400
H448        H  0.01161664  0.07537559  0.10143434     0.26400
N449        N  0.64855959  0.11277346  0.08098839    -0.27000
N450        N  0.62771316  0.10463270  0.09076990    -0.34900
C451        C  0.60923134  0.11391963  0.07629883     0.01300
C452        C  0.61896172  0.12895043  0.05689246     0.07300
C453        C  0.64390418  0.12786622  0.06050771    -0.05800
H454        H  0.59013657  0.11021504  0.07982468     0.08000
H455        H  0.65770204  0.13680460  0.04862710     0.09200
Cu456      Cu  0.62554015  0.08176395  0.12385931     0.44200
Cu457      Cu  0.68246988  0.10163810  0.09452080     0.42000
Cu458      Cu  0.68234420  0.05562966  0.14631754     0.43900
N459        N  0.62855086  0.05867916  0.15669835    -0.34400
N460        N  0.64919962  0.04817026  0.16395108    -0.28700
C461        C  0.64505468  0.03358581  0.18499023    -0.04800
C462        C  0.62068663  0.03530110  0.19159803     0.07400
C463        C  0.61076446  0.05140594  0.17334162     0.01200
H464        H  0.65885460  0.02287934  0.19499240     0.08900
H465        H  0.59191102  0.05703651  0.17192621     0.08000
N466        N  0.71362299  0.06951018  0.12927001    -0.35900
N467        N  0.71376573  0.08629955  0.11043449    -0.28000
C468        C  0.73698332  0.09200810  0.10467330    -0.03300
C469        C  0.75220319  0.07809673  0.12060500     0.05300
C470        C  0.73667944  0.06424618  0.13616822     0.03400
H471        H  0.74239108  0.10555916  0.09019685     0.08500
H472        H  0.74149045  0.05214831  0.15227294     0.07400
N473        N  0.02800558  0.74061243  0.16172483    -0.27000
N474        N  0.01811895  0.71988663  0.15371268    -0.34900
C475        C  0.02638299  0.70163465  0.16916318     0.01300
C476        C  0.04258958  0.71123188  0.18747400     0.07300
C477        C  0.04325659  0.73597674  0.18215132    -0.05800
H478        H  0.02149399  0.68267014  0.16672775     0.08000
H479        H  0.05388476  0.74962767  0.19249097     0.09200
Cu480      Cu  0.99508440  0.71706415  0.12100347     0.44200
Cu481      Cu  0.01948444  0.77428733  0.14490299     0.42000
Cu482      Cu  0.97208318  0.77364138  0.09428953     0.43900
N483        N  0.97256293  0.71917316  0.08781489    -0.34400
N484        N  0.96300793  0.73980541  0.07912541    -0.28700
C485        C  0.94879192  0.73514120  0.05791834    -0.04800
C486        C  0.94985431  0.71046466  0.05269234     0.07400
C487        C  0.96509811  0.70085954  0.07195997     0.01200
H488        H  0.93900631  0.74881449  0.04666813     0.08900
H489        H  0.97017293  0.68195442  0.07446295     0.08000
N490        N  0.98863058  0.80511018  0.10800429    -0.35900
N491        N  0.00612952  0.80542766  0.12611478    -0.28000
C492        C  0.01294573  0.82866259  0.13033573    -0.03300
C493        C  0.99930875  0.84366057  0.11382986     0.05300
C494        C  0.98392931  0.82805277  0.10017778     0.03400
H495        H  0.02614770  0.83416558  0.14513196     0.08500
H496        H  0.97024773  0.83302213  0.08563342     0.07400
N497        N  0.34596478  0.05784122  0.08235543    -0.27000
N498        N  0.36636907  0.06873299  0.08977297    -0.34900
C499        C  0.38483102  0.06058334  0.07464039     0.01300
C500        C  0.37567811  0.04346460  0.05715180     0.07300
C501        C  0.35100603  0.04207040  0.06259631    -0.05800
H502        H  0.40358465  0.06644101  0.07652215     0.08000
H503        H  0.33762982  0.03085456  0.05256496     0.09200
Cu504      Cu  0.36866009  0.09311674  0.12104938     0.44200
Cu505      Cu  0.31212328  0.06630901  0.09832613     0.42000
Cu506      Cu  0.31219215  0.11357402  0.14938710     0.43900
N507        N  0.36675162  0.11510874  0.15441850    -0.34400
N508        N  0.34603827  0.12340636  0.16430661    -0.28700
C509        C  0.35092554  0.13741048  0.18564312    -0.04800
C510        C  0.37587621  0.13752956  0.18954961     0.07400
C511        C  0.38535203  0.12318079  0.16946931     0.01200
H512        H  0.33729988  0.14633024  0.19776950     0.08900
H513        H  0.40436269  0.11912198  0.16586588     0.08000
N514        N  0.28086183  0.09829732  0.13341176    -0.35900
N515        N  0.28082156  0.08080941  0.11528470    -0.28000
C516        C  0.25763225  0.07463782  0.10980657    -0.03300
C517        C  0.24240415  0.08873113  0.12543479     0.05300
C518        C  0.25771274  0.10373698  0.13988535     0.03400
H519        H  0.25224174  0.06100436  0.09539959     0.08500
H520        H  0.25243103  0.11740716  0.15428267     0.07400
O521        O  0.07898338  0.53796982  0.46311464    -0.72700
O522        O  0.04278724  0.50217490  0.02081594    -0.73700
O523        O  0.07958875  0.53828165  0.01996363    -0.62300
O524        O  0.04215064  0.50170707  0.46392261    -0.70700
O525        O  0.07034854  0.47268363  0.46414697    -0.70200
O526        O  0.10812491  0.50958815  0.01962034    -0.61500
O527        O  0.07084766  0.47302486  0.02031022    -0.74000
O528        O  0.10754438  0.50931063  0.46351532    -0.72800
Cu529      Cu  0.05986703  0.52103528  0.49194530     1.04600
Cu530      Cu  0.09019214  0.49013686  0.49188129     1.04300
C531        C  0.09915508  0.52940743  0.45452874     0.93500
C532        C  0.05106427  0.48192965  0.02952245     0.92700
C533        C  0.09981720  0.52975983  0.02846259     0.84800
C534        C  0.05031417  0.48137281  0.45533843     0.91100
O535        O  0.57826848  0.19973657  0.02610065    -0.72700
O536        O  0.61591771  0.16233706  0.47090146    -0.73700
O537        O  0.57925224  0.19957461  0.47001306    -0.62300
O538        O  0.61482667  0.16243125  0.02721048    -0.70700
O539        O  0.58562187  0.13441609  0.02720442    -0.70200
O540        O  0.55062809  0.17097436  0.46911552    -0.61500
O541        O  0.58680162  0.13423256  0.47031721    -0.74000
O542        O  0.54954476  0.17121088  0.02600457    -0.72800
Cu543      Cu  0.59809392  0.18200405  0.49858898     1.04600
Cu544      Cu  0.56715494  0.15171214  0.49813917     1.04300
C545        C  0.55797683  0.19141996  0.03461768     0.93500
C546        C  0.60719882  0.14238687  0.46189330     0.92700
C547        C  0.55929798  0.19113717  0.46064782     0.84800
C548        C  0.60580876  0.14260459  0.03620439     0.91100
O549        O  0.94553943  0.67701226  0.02298523    -0.72700
O550        O  0.90909698  0.64041465  0.46605114    -0.73700
O551        O  0.94624288  0.67593514  0.46597459    -0.62300
O552        O  0.90856712  0.64148415  0.02296177    -0.70700
O553        O  0.88028872  0.67043572  0.02156267    -0.70200
O554        O  0.91844479  0.70535639  0.46530615    -0.61500
O555        O  0.88098601  0.66953322  0.46550524    -0.74000
O556        O  0.91764044  0.70630704  0.02157916    -0.72800
Cu557      Cu  0.92837066  0.65768675  0.49451352     1.04600
Cu558      Cu  0.89838207  0.68893661  0.49343638     1.04300
C559        C  0.93714937  0.69732296  0.03137340     0.93500
C560        C  0.88924283  0.64926714  0.45691066     0.92700
C561        C  0.93824242  0.69604254  0.45665820     0.84800
C562        C  0.88851532  0.65054797  0.03119604     0.91100
O563        O  0.41717121  0.97307701  0.02801739    -0.72700
O564        O  0.38183848  0.01075537  0.47137488    -0.73700
O565        O  0.41824944  0.97385680  0.47169156    -0.62300
O566        O  0.38069861  0.01012211  0.02756404    -0.70700
O567        O  0.40972231  0.03832516  0.02863521    -0.70200
O568        O  0.44710555  0.00223561  0.47225474    -0.61500
O569        O  0.41100317  0.03882453  0.47178840    -0.74000
O570        O  0.44583037  0.00162844  0.02939863    -0.72800
Cu571      Cu  0.39849883  0.99095836  0.49963912     1.04600
Cu572      Cu  0.42944325  0.02124861  0.50058960     1.04300
C573        C  0.43696920  0.98150124  0.03774941     0.93500
C574        C  0.39094363  0.03056960  0.46251692     0.92700
C575        C  0.43839163  0.98238808  0.46298859     0.84800
C576        C  0.38932759  0.02998809  0.03684820     0.91100
O577        O  0.04880687  0.67732444  0.21621788    -0.72700
O578        O  0.08786264  0.64010266  0.27055314    -0.73700
O579        O  0.05134623  0.67584080  0.27319737    -0.62300
O580        O  0.08543037  0.64124714  0.21342380    -0.70700
O581        O  0.11403497  0.66987964  0.21316936    -0.70200
O582        O  0.07951230  0.70491029  0.27223470    -0.61500
O583        O  0.11651850  0.66866288  0.26974848    -0.74000
O584        O  0.07699138  0.70635105  0.21593051    -0.72800
Cu585      Cu  0.06739228  0.65759769  0.24333289     1.04600
Cu586      Cu  0.09777590  0.68843878  0.24270952     1.04300
C587        C  0.05675100  0.69772358  0.20754639     0.93500
C588        C  0.10804119  0.64874357  0.27910276     0.92700
C589        C  0.06016155  0.69574079  0.28218099     0.84800
C590        C  0.10503897  0.65018717  0.20382468     0.91100
O591        O  0.38334642  0.16966996  0.27647007    -0.72700
O592        O  0.41751277  0.20681534  0.21855622    -0.73700
O593        O  0.38100725  0.17001731  0.22024633    -0.62300
O594        O  0.42007107  0.20657167  0.27515328    -0.70700
O595        O  0.44830939  0.17761870  0.27423105    -0.70200
O596        O  0.40998905  0.14182835  0.21825841    -0.61500
O597        O  0.44611425  0.17822457  0.21718050    -0.74000
O598        O  0.41200223  0.14112002  0.27524887    -0.72800
Cu599      Cu  0.39950240  0.18928100  0.24769626     1.04600
Cu600      Cu  0.43012351  0.15871446  0.24619002     1.04300
C601        C  0.39224022  0.14961624  0.28495897     0.93500
C602        C  0.43701094  0.19811013  0.20845249     0.92700
C603        C  0.38954421  0.15034255  0.21039459     0.84800
C604        C  0.44018500  0.19768175  0.28357608     0.91100
O605        O  0.94051824  0.50372118  0.21553733    -0.72700
O606        O  0.90312110  0.53892920  0.27239223    -0.73700
O607        O  0.93944784  0.50264992  0.27246087    -0.62300
O608        O  0.90390232  0.53987498  0.21551882    -0.70700
O609        O  0.87508902  0.51144662  0.21482741    -0.70200
O610        O  0.91092086  0.47395214  0.27110184    -0.61500
O611        O  0.87410667  0.51072746  0.27114812    -0.74000
O612        O  0.91216953  0.47483561  0.21492014    -0.72800
Cu613      Cu  0.92273331  0.52231276  0.24400501     1.04600
Cu614      Cu  0.89206358  0.49174340  0.24293236     1.04300
C615        C  0.93228724  0.48362515  0.20641477     0.93500
C616        C  0.88287595  0.53041323  0.28079032     0.92700
C617        C  0.93072786  0.48242977  0.28071736     0.84800
C618        C  0.88388792  0.53149348  0.20625702     0.91100
O619        O  0.61574823  0.00088335  0.27845420    -0.72700
O620        O  0.57921341  0.96578352  0.22068053    -0.73700
O621        O  0.61630823  0.00216316  0.22184587    -0.62300
O622        O  0.57829328  0.96480134  0.27730315    -0.70700
O623        O  0.55061457  0.99430524  0.27771668    -0.70200
O624        O  0.58787102  0.03094321  0.22193855    -0.61500
O625        O  0.55125062  0.99502292  0.22060956    -0.74000
O626        O  0.58754023  0.02988184  0.27908829    -0.72800
Cu627      Cu  0.59839362  0.98239622  0.24956293     1.04600
Cu628      Cu  0.56834350  0.01354378  0.24983924     1.04300
C629        C  0.60729071  0.02066900  0.28810825     0.93500
C630        C  0.55961980  0.97500457  0.21135851     0.92700
C631        C  0.60778415  0.02224388  0.21289217     0.84800
C632        C  0.55859919  0.97398706  0.28649048     0.91100
C633        C  0.12335645  0.09780570  0.14082984    -0.22200
C634        C  0.13742815  0.09006545  0.11917129     0.09800
C635        C  0.12588729  0.08278129  0.09534433     0.10200
C636        C  0.10036666  0.08323163  0.09380008    -0.17100
C637        C  0.08628356  0.09102663  0.11546035    -0.27500
C638        C  0.09787919  0.09852678  0.13924905     0.18500
C639        C  0.16427415  0.09008614  0.12176352     0.12500
C640        C  0.14052224  0.07492021  0.07149327    -0.11900
H641        H  0.09130746  0.07756565  0.07563709     0.12800
C642        C  0.08399058  0.10725844  0.16330729    -0.22700
H643        H  0.13235094  0.10340842  0.15906441     0.08400
C644        C  0.17781729  0.11184281  0.11982366     0.04700
C645        C  0.20331331  0.11089319  0.12174219    -0.20000
C646        C  0.21548943  0.08868496  0.12564061    -0.12200
C647        C  0.20174987  0.06703690  0.12881468     0.13400
C648        C  0.17630420  0.06799707  0.12641930    -0.22700
C649        C  0.16536289  0.13593382  0.11520751    -0.05700
H650        H  0.21384130  0.12748687  0.11958531     0.15000
C651        C  0.21306855  0.04284764  0.13583138    -0.15900
H652        H  0.16570875  0.05143081  0.12853405     0.09300
H653        H  0.08947982  0.12624835  0.16800904     0.07100
H654        H  0.08833643  0.09544754  0.18061235     0.08300
H655        H  0.06396781  0.10698517  0.16046514     0.07400
H656        H  0.15152861  0.05859901  0.07653611     0.02300
H657        H  0.15287963  0.08990178  0.06530485     0.02800
H658        H  0.12862922  0.07025489  0.05432645     0.06300
H659        H  0.17868254  0.15110054  0.11364271     0.05200
H660        H  0.15289910  0.14001509  0.13201600    -0.00500
H661        H  0.15470021  0.13520900  0.09642337     0.00900
H662        H  0.20450690  0.03572019  0.15428276     0.04600
H663        H  0.23289322  0.04398069  0.13970476     0.06500
H664        H  0.20986397  0.02966894  0.11943289     0.07400
C665        C  0.01945296  0.91010119  0.11058093    -0.22200
C666        C  0.99691637  0.92202953  0.11148917     0.09800
C667        C  0.97521688  0.90827175  0.11179153     0.10200
C668        C  0.97661874  0.88274538  0.11251521    -0.17100
C669        C  0.99921465  0.87066816  0.11265210    -0.27500
C670        C  0.02092067  0.88456198  0.11092142     0.18500
C671        C  0.99660427  0.94898490  0.11196204     0.12500
C672        C  0.95064413  0.92051244  0.11093811    -0.11900
H673        H  0.95995913  0.87215359  0.11323076     0.12800
C674        C  0.04558041  0.87274439  0.10818710    -0.22700
H675        H  0.03597940  0.92089653  0.10964040     0.08400
C676        C  0.99507651  0.96199501  0.13614958     0.04700
C677        C  0.99527532  0.98755195  0.13563830    -0.20000
C678        C  0.99749008  0.00027723  0.11155399    -0.12200
C679        C  0.99929910  0.98722377  0.08736390     0.13400
C680        C  0.99877013  0.96168687  0.08788562    -0.22700
C681        C  0.99376927  0.94891331  0.16247936    -0.05700
H682        H  0.99391189  0.99771017  0.15408402     0.15000
C683        C  0.00176455  0.99965070  0.06074813    -0.15900
H684        H  0.00015808  0.95158749  0.06939474     0.09300
H685        H  0.05043763  0.86292114  0.12668468     0.07100
H686        H  0.06012516  0.88641994  0.10454245     0.08300
H687        H  0.04546360  0.85989203  0.09111661     0.07400
H688        H  0.94911196  0.93160243  0.09253003     0.02300
H689        H  0.94831815  0.93256734  0.12846274     0.02800
H690        H  0.93554393  0.90703435  0.11098854     0.06300
H691        H  0.99293536  0.96187033  0.17943818     0.05200
H692        H  0.01018922  0.93733287  0.16505617    -0.00500
H693        H  0.97729801  0.93723425  0.16326680     0.00900
H694        H  0.01895487  0.99372679  0.05106484     0.04600
H695        H  0.00213870  0.01978694  0.06226482     0.06500
H696        H  0.98616133  0.99448931  0.04783346     0.07400
C697        C  0.81962066  0.06169197  0.12365064    -0.22200
C698        C  0.83024794  0.08480085  0.12179036     0.09800
C699        C  0.81531874  0.10561907  0.11982392     0.10200
C700        C  0.78993662  0.10278710  0.11988814    -0.17100
C701        C  0.77912894  0.07965082  0.12193916    -0.27500
C702        C  0.79423520  0.05877620  0.12388518     0.18500
C703        C  0.85709047  0.08659361  0.12090102     0.12500
C704        C  0.82612980  0.13079991  0.11786008    -0.11900
H705        H  0.77844237  0.11878343  0.11839966     0.12800
C706        C  0.78402928  0.03330954  0.12502844    -0.22700
H707        H  0.83134302  0.04582048  0.12467679     0.08400
C708        C  0.87159145  0.08209587  0.14361445     0.04700
C709        C  0.89700718  0.08365507  0.14145555    -0.20000
C710        C  0.90806296  0.08935824  0.11709701    -0.12200
C711        C  0.89356583  0.09364719  0.09434005     0.13400
C712        C  0.86820056  0.09222262  0.09656151    -0.22700
C713        C  0.86030565  0.07575872  0.17005893    -0.05700
H714        H  0.90836942  0.08015721  0.15870532     0.15000
C715        C  0.90425593  0.09928107  0.06740172    -0.15900
H716        H  0.85697476  0.09524245  0.07908909     0.09300
H717        H  0.77476934  0.03025466  0.14430987     0.07100
H718        H  0.79860861  0.01934697  0.12344477     0.08300
H719        H  0.77110890  0.03034898  0.10831559     0.07400
H720        H  0.83711089  0.13245223  0.09941711     0.02300
H721        H  0.83796295  0.13432475  0.13538676     0.02800
H722        H  0.81180253  0.14508028  0.11726380     0.06300
H723        H  0.87432362  0.07349891  0.18583554     0.05200
H724        H  0.85009121  0.05837985  0.16845876    -0.00500
H725        H  0.84766720  0.09047819  0.17629804     0.00900
H726        H  0.89847304  0.08510962  0.05293980     0.04600
H727        H  0.92444527  0.09986488  0.06745653     0.06500
H728        H  0.89751400  0.11727393  0.06050207     0.07400
C729        C  0.97271156  0.26937918  0.12295365    -0.22200
C730        C  0.99511686  0.25789910  0.11849718     0.09800
C731        C  0.01631898  0.27203175  0.11511965     0.10200
C732        C  0.01464900  0.29750025  0.11637988    -0.17100
C733        C  0.99224718  0.30919385  0.12094078    -0.27500
C734        C  0.97092511  0.29488113  0.12416783     0.18500
C735        C  0.99588198  0.23099711  0.11708782     0.12500
C736        C  0.04064674  0.26019244  0.11008686    -0.11900
H737        H  0.03096933  0.30836774  0.11378243     0.12800
C738        C  0.94608015  0.30614181  0.12762404    -0.22700
H739        H  0.95652016  0.25826190  0.12529767     0.08400
C740        C  0.99823949  0.21667238  0.14024809     0.04700
C741        C  0.99887415  0.19121986  0.13791905    -0.20000
C742        C  0.99686664  0.17985953  0.11298980    -0.12200
C743        C  0.99442499  0.19424298  0.08978783     0.13400
C744        C  0.99405097  0.21969634  0.09214727    -0.22700
C745        C  0.00002255  0.22828253  0.16734438    -0.05700
H746        H  0.00068065  0.18005760  0.15561198     0.15000
C747        C  0.99209839  0.18335523  0.06236608    -0.15900
H748        H  0.99220631  0.23082949  0.07442815     0.09300
H749        H  0.93141111  0.29220204  0.12702930     0.07100
H750        H  0.94252685  0.31939039  0.11137960     0.08300
H751        H  0.94483389  0.31530996  0.14720348     0.07400
H752        H  0.03984112  0.24937355  0.09143258     0.02300
H753        H  0.04534850  0.24796051  0.12692205     0.02800
H754        H  0.05542716  0.27388563  0.10800517     0.06300
H755        H  0.00185773  0.21444150  0.18334718     0.05200
H756        H  0.98335697  0.23914552  0.17133682    -0.00500
H757        H  0.01618400  0.24042910  0.16816018     0.00900
H758        H  0.97463040  0.18927007  0.05325235     0.04600
H759        H  0.99240760  0.16317085  0.06246603     0.06500
H760        H  0.00739724  0.18979224  0.04973495     0.07400
C761        C  0.87180462  0.08886022  0.39527781    -0.22200
C762        C  0.85910160  0.08063224  0.37276773     0.09800
C763        C  0.87208636  0.07487688  0.34935215     0.10200
C764        C  0.89760669  0.07689273  0.34919944    -0.17100
C765        C  0.91036083  0.08502231  0.37173895    -0.27500
C766        C  0.89729480  0.09121686  0.39505554     0.18500
C767        C  0.83209381  0.07951804  0.37369133     0.12500
C768        C  0.85896922  0.06705974  0.32441748    -0.11900
H769        H  0.90771558  0.07222915  0.33138209     0.12800
C770        C  0.90963746  0.10026307  0.41998130    -0.22700
H771        H  0.86172874  0.09359918  0.41310260     0.08400
C772        C  0.81949772  0.05790915  0.38023910     0.04700
C773        C  0.79385491  0.05799440  0.38067007    -0.20000
C774        C  0.78059160  0.07931847  0.37523595    -0.12200
C775        C  0.79332395  0.10087575  0.36841664     0.13400
C776        C  0.81891173  0.10067147  0.36779476    -0.22700
C777        C  0.83311583  0.03492627  0.38710894    -0.05700
H778        H  0.78410404  0.04145899  0.38573065     0.15000
C779        C  0.78013209  0.12388655  0.36066975    -0.15900
H780        H  0.82877038  0.11710220  0.36256144     0.09300
H781        H  0.90543600  0.08778385  0.43675360     0.07100
H782        H  0.90273495  0.11873564  0.42489132     0.08300
H783        H  0.92972361  0.10138156  0.41806023     0.07400
H784        H  0.84624803  0.08164491  0.31798313     0.02300
H785        H  0.84846386  0.05015062  0.32818749     0.02800
H786        H  0.87185911  0.06345112  0.30784267     0.06300
H787        H  0.82049753  0.01973058  0.39191701     0.05200
H788        H  0.84494834  0.03819408  0.40469267    -0.00500
H789        H  0.84462815  0.02918502  0.37009070     0.00900
H790        H  0.76996779  0.13127142  0.37791338     0.04600
H791        H  0.76731769  0.12006067  0.34406521     0.06500
H792        H  0.79296719  0.13827136  0.35394486     0.07400
C793        C  0.01715917  0.26934456  0.36023671    -0.22200
C794        C  0.99545095  0.25593151  0.36177337     0.09800
C795        C  0.97298840  0.26847125  0.36284004     0.10200
C796        C  0.97280807  0.29410507  0.36285826    -0.17100
C797        C  0.99455734  0.30759443  0.36177589    -0.27500
C798        C  0.01701553  0.29494967  0.35961660     0.18500
C799        C  0.99663901  0.22879621  0.36205814     0.12500
C800        C  0.94919085  0.25480336  0.36369445    -0.11900
H801        H  0.95557949  0.30368508  0.36419862     0.12800
C802        C  0.04107752  0.30761787  0.35531092    -0.22700
H803        H  0.03437944  0.25971832  0.35902130     0.08400
C804        C  0.00243202  0.21524940  0.33897335     0.04700
C805        C  0.00306862  0.18964593  0.34026256    -0.20000
C806        C  0.99784926  0.17725292  0.36402847    -0.12200
C807        C  0.99207260  0.19083207  0.38713608     0.13400
C808        C  0.99166613  0.21639424  0.38586367    -0.22700
C809        C  0.00738660  0.22776740  0.31285256    -0.05700
H810        H  0.00745039  0.17918348  0.32260345     0.15000
C811        C  0.98630790  0.17897326  0.41344501    -0.15900
H812        H  0.98734829  0.22677026  0.40361296     0.09300
H813        H  0.04997293  0.30008221  0.33724393     0.07100
H814        H  0.05314649  0.30443106  0.37271486     0.08300
H815        H  0.03928118  0.32745928  0.35204979     0.07400
H816        H  0.94823128  0.24355828  0.38201308     0.02300
H817        H  0.94768453  0.24278343  0.34598721     0.02800
H818        H  0.93331987  0.26735806  0.36370704     0.06300
H819        H  0.01090169  0.21446385  0.29664395     0.05200
H820        H  0.02364856  0.23966512  0.31467463    -0.00500
H821        H  0.99138926  0.23898354  0.30709333     0.00900
H822        H  0.99941377  0.18542605  0.42875485     0.04600
H823        H  0.96757326  0.18407793  0.41965163     0.06500
H824        H  0.98737179  0.15883002  0.41277179     0.07400
C825        C  0.12920637  0.08973334  0.34331225    -0.22200
C826        C  0.14142265  0.09014979  0.36784397     0.09800
C827        C  0.12785432  0.08980670  0.39171261     0.10200
C828        C  0.10231191  0.08924506  0.39051659    -0.17100
C829        C  0.09005864  0.08904309  0.36601001    -0.27500
C830        C  0.10364321  0.08909248  0.34208086     0.18500
C831        C  0.16844108  0.09085476  0.36830781     0.12500
C832        C  0.14036082  0.08969704  0.41842728    -0.11900
H833        H  0.09178018  0.08897360  0.40876304     0.12800
C834        C  0.09175986  0.08832964  0.31503645    -0.22700
H835        H  0.13969251  0.08988538  0.32502646     0.08400
C836        C  0.18249751  0.06968184  0.36415818     0.04700
C837        C  0.20794973  0.07092289  0.36675342    -0.20000
C838        C  0.21967856  0.09288755  0.37318152    -0.12200
C839        C  0.20550450  0.11410711  0.37744109     0.13400
C840        C  0.18009225  0.11283644  0.37457960    -0.22700
C841        C  0.17061729  0.04576504  0.35726037    -0.05700
H842        H  0.21880421  0.05471022  0.36341994     0.15000
C843        C  0.21623409  0.13807382  0.38627108    -0.15900
H844        H  0.16916937  0.12899170  0.37804052     0.09300
H845        H  0.09792642  0.07181161  0.30420744     0.07100
H846        H  0.09713690  0.10470966  0.30348717     0.08300
H847        H  0.07158653  0.08785831  0.31603324     0.07400
H848        H  0.15128776  0.10655974  0.42088636     0.02300
H849        H  0.15256426  0.07361996  0.41991200     0.02800
H850        H  0.12705487  0.08881579  0.43504962     0.06300
H851        H  0.18423999  0.03093668  0.35507789     0.05200
H852        H  0.16061485  0.04747953  0.33813620    -0.00500
H853        H  0.15764631  0.04050103  0.37320944     0.00900
H854        H  0.21297249  0.15207579  0.37072601     0.04600
H855        H  0.23602466  0.13714137  0.39037641     0.06500
H856        H  0.20727060  0.14399458  0.40500344     0.07400
C857        C  0.02561765  0.90712579  0.37488047    -0.22200
C858        C  0.00317017  0.91925584  0.37411438     0.09800
C859        C  0.98135041  0.90568132  0.37366429     0.10200
C860        C  0.98249229  0.88015871  0.37380249    -0.17100
C861        C  0.00495091  0.86790012  0.37408480    -0.27500
C862        C  0.02683255  0.88157801  0.37500761     0.18500
C863        C  0.00295016  0.94622629  0.37386514     0.12500
C864        C  0.95689239  0.91813821  0.37328213    -0.11900
H865        H  0.96574002  0.86969556  0.37332864     0.12800
C866        C  0.05143312  0.86953855  0.37731578    -0.22700
H867        H  0.04225752  0.91776787  0.37545511     0.08400
C868        C  0.00716845  0.95988357  0.39723098     0.04700
C869        C  0.00664152  0.98542663  0.39597746    -0.20000
C870        C  0.00204965  0.99749830  0.37187576    -0.12200
C871        C  0.99799225  0.98378547  0.34845115     0.13400
C872        C  0.99848103  0.95828674  0.34976850    -0.22700
C873        C  0.01194153  0.94748255  0.42346746    -0.05700
H874        H  0.00979052  0.99607621  0.41382488     0.15000
C875        C  0.99327876  0.99545037  0.32177940    -0.15900
H876        H  0.99539246  0.94770198  0.33184928     0.09300
H877        H  0.05162853  0.85701348  0.39466895     0.07100
H878        H  0.06621449  0.88311643  0.38020677     0.08300
H879        H  0.05570047  0.85930780  0.35891155     0.07400
H880        H  0.95511831  0.92936085  0.35500871     0.02300
H881        H  0.95508551  0.93004517  0.39104147     0.02800
H882        H  0.94166351  0.90480632  0.37350675     0.06300
H883        H  0.01440455  0.96085615  0.43984405     0.05200
H884        H  0.02876733  0.93633573  0.42212685    -0.00500
H885        H  0.99632761  0.93550653  0.42860395     0.00900
H886        H  0.00756934  0.98965446  0.30748040     0.04600
H887        H  0.99335033  0.01562289  0.32255537     0.06500
H888        H  0.97522022  0.98951027  0.31418206     0.07400
C889        C  0.62630709  0.58864903  0.42163268    -0.22200
C890        C  0.63686176  0.58628165  0.39636119     0.09800
C891        C  0.62190135  0.58354831  0.37373019     0.10200
C892        C  0.59654372  0.58398438  0.37674996    -0.17100
C893        C  0.58590634  0.58685955  0.40191388    -0.27500
C894        C  0.60089380  0.58885164  0.42472935     0.18500
C895        C  0.66361059  0.58763052  0.39362509     0.12500
C896        C  0.63276594  0.58024138  0.34643047    -0.11900
H897        H  0.58488786  0.58210880  0.35943065     0.12800
C898        C  0.59066837  0.59111802  0.45244823    -0.22700
H899        H  0.63795531  0.59055417  0.43895898     0.08400
C900        C  0.67535827  0.61008147  0.38914948     0.04700
C901        C  0.70052619  0.61039559  0.38442864    -0.20000
C902        C  0.71417408  0.58876766  0.38420239    -0.12200
C903        C  0.70246572  0.56633720  0.38985723     0.13400
C904        C  0.67720505  0.56606753  0.39410531    -0.22700
C905        C  0.66123508  0.63362009  0.38911785    -0.05700
H906        H  0.70956262  0.62758578  0.38049864     0.15000
C907        C  0.71591252  0.54252609  0.39269959    -0.15900
H908        H  0.66802853  0.54892226  0.39792009     0.09300
H909        H  0.59712500  0.60836100  0.46160500     0.07100
H910        H  0.59707663  0.57557399  0.46474300     0.08300
H911        H  0.57046942  0.59116351  0.45284152     0.07400
H912        H  0.64419749  0.56355862  0.34611069     0.02300
H913        H  0.64423710  0.59621681  0.34129684     0.02800
H914        H  0.61846889  0.57834090  0.33090125     0.06300
H915        H  0.67320522  0.64953890  0.38522049     0.05200
H916        H  0.65241515  0.63627725  0.40878999    -0.00500
H917        H  0.64697671  0.63311202  0.37343558     0.00900
H918        H  0.71181030  0.53446231  0.41247170     0.04600
H919        H  0.73594138  0.54441882  0.39153923     0.06500
H920        H  0.70979151  0.52969371  0.37697080     0.07400
C921        C  0.47398594  0.40771682  0.38763388    -0.22200
C922        C  0.49631836  0.41884022  0.39347872     0.09800
C923        C  0.51726365  0.40434833  0.39701909     0.10200
C924        C  0.51547611  0.37897017  0.39405391    -0.17100
C925        C  0.49319846  0.36763743  0.38768736    -0.27500
C926        C  0.47206576  0.38231159  0.38474800     0.18500
C927        C  0.49724864  0.44575618  0.39567697     0.12500
C928        C  0.54142797  0.41566923  0.40412219    -0.11900
H929        H  0.53167879  0.36792112  0.39656096     0.12800
C930        C  0.44723953  0.37153382  0.37965966    -0.22700
H931        H  0.45795985  0.41906581  0.38526263     0.08400
C932        C  0.50248714  0.46048454  0.37337838     0.04700
C933        C  0.50261243  0.48591922  0.37621147    -0.20000
C934        C  0.49719453  0.49691955  0.40071229    -0.12200
C935        C  0.49177314  0.48216197  0.42301659     0.13400
C936        C  0.49197503  0.45671199  0.42022305    -0.22700
C937        C  0.50748894  0.44934935  0.34652560    -0.05700
H938        H  0.50660538  0.49735298  0.35917066     0.15000
C939        C  0.48561310  0.49265934  0.44990153    -0.15900
H940        H  0.48778810  0.44531987  0.43724886     0.09300
H941        H  0.43265481  0.38550553  0.38108620     0.07100
H942        H  0.44324077  0.35717671  0.39459580     0.08300
H943        H  0.44633529  0.36388907  0.35929606     0.07400
H944        H  0.53979212  0.42564408  0.42326631     0.02300
H945        H  0.54712088  0.42859639  0.38833188     0.02800
H946        H  0.55595304  0.40172504  0.40634230     0.06300
H947        H  0.51109203  0.46347258  0.33119444     0.05200
H948        H  0.49147639  0.43850446  0.34001018    -0.00500
H949        H  0.52366201  0.43726886  0.34767143     0.00900
H950        H  0.46705832  0.48667017  0.45580736     0.04600
H951        H  0.49892403  0.48600050  0.46488814     0.06500
H952        H  0.48598418  0.51284170  0.45022098     0.07400
C953        C  0.36609069  0.57983957  0.41453297    -0.22200
C954        C  0.35547537  0.58479418  0.38971016     0.09800
C955        C  0.37055262  0.59004751  0.36768163     0.10200
C956        C  0.39593863  0.59066120  0.37108528    -0.17100
C957        C  0.40656312  0.58602748  0.39598014    -0.27500
C958        C  0.39148810  0.58034386  0.41795745     0.18500
C959        C  0.32852202  0.58575303  0.38747097     0.12500
C960        C  0.35983436  0.59473724  0.34054771    -0.11900
H961        H  0.40762176  0.59469687  0.35426111     0.12800
C962        C  0.40157287  0.57497483  0.44525127    -0.22700
H963        H  0.35445521  0.57587031  0.43142264     0.08400
C964        C  0.31417395  0.56449374  0.38566796     0.04700
C965        C  0.28874882  0.56665372  0.38299333    -0.20000
C966        C  0.27737224  0.58959278  0.38182730    -0.12200
C967        C  0.29184002  0.61085818  0.38421999     0.13400
C968        C  0.31720901  0.60861111  0.38700098    -0.22700
C969        C  0.32572885  0.53961635  0.38621367    -0.05700
H970        H  0.27770430  0.55033950  0.38147466     0.15000
C971        C  0.28073276  0.63594435  0.38502497    -0.15900
H972        H  0.32839306  0.62481550  0.38878329     0.09300
H973        H  0.39621554  0.55627354  0.45129595     0.07100
H974        H  0.39398989  0.58817536  0.45980003     0.08300
H975        H  0.42171504  0.57623022  0.44619240     0.07400
H976        H  0.34785543  0.61100908  0.34119767     0.02300
H977        H  0.34898870  0.57869623  0.33412616     0.02800
H978        H  0.37420670  0.59805656  0.32541751     0.06300
H979        H  0.31193148  0.52491765  0.38423174     0.05200
H980        H  0.33551319  0.53693358  0.40533941    -0.00500
H981        H  0.33885768  0.53788331  0.36951105     0.00900
H982        H  0.26660191  0.63680258  0.40080613     0.04600
H983        H  0.27256910  0.64050064  0.36548782     0.06500
H984        H  0.29458925  0.65014160  0.38943735     0.07400
C985        C  0.46929377  0.76651824  0.38812936    -0.22200
C986        C  0.49201688  0.75488976  0.38872155     0.09800
C987        C  0.51345783  0.76878160  0.38588944     0.10200
C988        C  0.51172601  0.79409490  0.38257380    -0.17100
C989        C  0.48904067  0.80595690  0.38223886    -0.27500
C990        C  0.46746865  0.79191329  0.38495178     0.18500
C991        C  0.49299135  0.72803362  0.39166445     0.12500
C992        C  0.53816899  0.75685252  0.38644478    -0.11900
H993        H  0.52825741  0.80473906  0.38053398     0.12800
C994        C  0.44247479  0.80322972  0.38342952    -0.22700
H995        H  0.45292324  0.75560323  0.39007415     0.08400
C996        C  0.49329869  0.71680472  0.41693438     0.04700
C997        C  0.49458802  0.69128335  0.41862885    -0.20000
C998        C  0.49542699  0.67681535  0.39560350    -0.12200
C999        C  0.49520490  0.68813929  0.37028882     0.13400
C1000       C  0.49398292  0.71362331  0.36866932    -0.22700
C1001       C  0.49222722  0.73178357  0.44202175    -0.05700
H1002       H  0.49471175  0.68251342  0.43795997     0.15000
C1003       C  0.49622647  0.67392633  0.34464849    -0.15900
H1004       H  0.49383246  0.72235185  0.34930334     0.09300
H1005       H  0.43921547  0.81496975  0.40098252     0.07100
H1006       H  0.42789658  0.78918553  0.38329419     0.08300
H1007       H  0.44072833  0.81409491  0.36488514     0.07400
H1008       H  0.53958709  0.74343559  0.36998310     0.02300
H1009       H  0.54082581  0.74733996  0.40572945     0.02800
H1010       H  0.55308500  0.77035957  0.38408370     0.06300
H1011       H  0.49272963  0.72016505  0.46011568     0.05200
H1012       H  0.47508604  0.74252067  0.44238320    -0.00500
H1013       H  0.50800446  0.74442497  0.44279084     0.00900
H1014       H  0.47969978  0.67785639  0.33262213     0.04600
H1015       H  0.49718644  0.65397122  0.34778035     0.06500
H1016       H  0.51258700  0.67949784  0.33316233     0.07400
C1017       C  0.36541068  0.59007617  0.13104048    -0.22200
C1018       C  0.35315616  0.59309300  0.10679109     0.09800
C1019       C  0.36652330  0.59469921  0.08288067     0.10200
C1020       C  0.39199202  0.59270045  0.08371905    -0.17100
C1021       C  0.40426126  0.58932699  0.10794479    -0.27500
C1022       C  0.39087097  0.58828459  0.13195721     0.18500
C1023       C  0.32623758  0.59370984  0.10682725     0.12500
C1024       C  0.35388216  0.59841338  0.05656410    -0.11900
H1025       H  0.40244791  0.59390658  0.06546503     0.12800
C1026       C  0.40285498  0.58558721  0.15879897    -0.22700
H1027       H  0.35500862  0.58903341  0.14935322     0.08400
C1028       C  0.31251586  0.57202196  0.10736714     0.04700
C1029       C  0.28700907  0.57335506  0.10725534    -0.20000
C1030       C  0.27491656  0.59588949  0.10642632    -0.12200
C1031       C  0.28880303  0.61764880  0.10506916     0.13400
C1032       C  0.31432430  0.61623616  0.10581998    -0.22700
C1033       C  0.32484564  0.54750576  0.10788539    -0.05700
H1034       H  0.27643531  0.55669343  0.10813563     0.15000
C1035       C  0.27764188  0.64252738  0.10142421    -0.15900
H1036       H  0.32505768  0.63280788  0.10493609     0.09300
H1037       H  0.39596613  0.56887047  0.16869832     0.07100
H1038       H  0.39831724  0.60160899  0.17134658     0.08300
H1039       H  0.42297683  0.58422630  0.15759111     0.07400
H1040       H  0.34367145  0.61586591  0.05684503     0.02300
H1041       H  0.34097465  0.58320869  0.05284935     0.02800
H1042       H  0.36705469  0.59907625  0.03980056     0.06300
H1043       H  0.31142293  0.53236017  0.10797221     0.05200
H1044       H  0.33627914  0.54587874  0.12604029    -0.00500
H1045       H  0.33656360  0.54544827  0.09001397     0.00900
H1046       H  0.28132038  0.65385313  0.11929406     0.04600
H1047       H  0.25777515  0.64204653  0.09777308     0.06500
H1048       H  0.28594336  0.65149072  0.08380427     0.07400
C1049       C  0.50324606  0.71416178  0.12962999    -0.22200
C1050       C  0.49842357  0.72760285  0.10651196     0.09800
C1051       C  0.49258556  0.71533603  0.08264045     0.10200
C1052       C  0.49164692  0.68976342  0.08246656    -0.17100
C1053       C  0.49647181  0.67631917  0.10563371    -0.27500
C1054       C  0.50230562  0.68864483  0.12952455     0.18500
C1055       C  0.49926399  0.75455008  0.10792810     0.12500
C1056       C  0.48716050  0.72927217  0.05750682    -0.11900
H1057       H  0.48713920  0.68017754  0.06424870     0.12800
C1058       C  0.50743135  0.67546193  0.15525252    -0.22700
H1059       H  0.50764267  0.72368234  0.14793223     0.08400
C1060       C  0.47919209  0.76811200  0.11730845     0.04700
C1061       C  0.48077174  0.79361505  0.11832911    -0.20000
C1062       C  0.50212291  0.80579235  0.11065464    -0.12200
C1063       C  0.52222357  0.79219601  0.10122924     0.13400
C1064       C  0.52052887  0.76667335  0.09994840    -0.22700
C1065       C  0.45611865  0.75564035  0.12613626    -0.05700
H1066       H  0.46536954  0.80412164  0.12544506     0.15000
C1067       C  0.54511539  0.80456543  0.09170664    -0.15900
H1068       H  0.53580876  0.75608871  0.09266176     0.09300
H1069       H  0.49413375  0.68137627  0.17059708     0.07100
H1070       H  0.52611665  0.67997771  0.16217766     0.08300
H1071       H  0.50611585  0.65538986  0.15342270     0.07400
H1072       H  0.50325839  0.74034267  0.05178904     0.02300
H1073       H  0.47134511  0.74152224  0.06078002     0.02800
H1074       H  0.48273031  0.71690546  0.04068066     0.06300
H1075       H  0.44211264  0.76894418  0.13271112     0.05200
H1076       H  0.46009958  0.74327637  0.14307542    -0.00500
H1077       H  0.44842667  0.74487207  0.10940923     0.00900
H1078       H  0.55374918  0.81468407  0.10833733     0.04600
H1079       H  0.54063416  0.81743336  0.07536736     0.06500
H1080       H  0.55862358  0.79123541  0.08403631     0.07400
C1081       C  0.62212321  0.59180404  0.12798851    -0.22200
C1082       C  0.63463572  0.58563992  0.10461967     0.09800
C1083       C  0.62136629  0.57898699  0.08162885     0.10200
C1084       C  0.59580860  0.57851123  0.08263374    -0.17100
C1085       C  0.58331704  0.58484412  0.10596811    -0.27500
C1086       C  0.59659643  0.59171437  0.12890608     0.18500
C1087       C  0.66164055  0.58624787  0.10477705     0.12500
C1088       C  0.63411863  0.57300918  0.05589996    -0.11900
H1089       H  0.58545588  0.57352678  0.06506594     0.12800
C1090       C  0.58444577  0.59912278  0.15456148    -0.22700
H1091       H  0.63237746  0.59684974  0.14561413     0.08400
C1092       C  0.67462157  0.60844117  0.10497002     0.04700
C1093       C  0.70019456  0.60800169  0.10570776    -0.20000
C1094       C  0.71307981  0.58589612  0.10616158    -0.12200
C1095       C  0.69999910  0.56366861  0.10484150     0.13400
C1096       C  0.67444308  0.56417527  0.10475921    -0.22700
C1097       C  0.66151588  0.63254888  0.10415934    -0.05700
H1098       H  0.71018597  0.62502666  0.10641783     0.15000
C1099       C  0.71214852  0.53915430  0.10222198    -0.15900
H1100       H  0.66437950  0.54717605  0.10422594     0.09300
H1101       H  0.58973331  0.61809901  0.15959444     0.07100
H1102       H  0.59049974  0.58684855  0.17083964     0.08300
H1103       H  0.56428463  0.59829754  0.15357246     0.07400
H1104       H  0.64592754  0.55679114  0.05856567     0.02300
H1105       H  0.64546886  0.58872776  0.04959409     0.02800
H1106       H  0.62094518  0.56895706  0.03968676     0.06300
H1107       H  0.67446255  0.64809799  0.10367801     0.05200
H1108       H  0.64988853  0.63462370  0.12207395    -0.00500
H1109       H  0.64992503  0.63350757  0.08605583     0.00900
H1110       H  0.70818151  0.52797809  0.12011895     0.04600
H1111       H  0.73212049  0.54030810  0.09954780     0.06500
H1112       H  0.70484898  0.52964395  0.08439746     0.07400
C1113       C  0.51160445  0.40529819  0.11782426    -0.22200
C1114       C  0.49077600  0.41845382  0.11048135     0.09800
C1115       C  0.46942742  0.40587748  0.10294176     0.10200
C1116       C  0.46940745  0.38030177  0.10276066    -0.17100
C1117       C  0.49038721  0.36707943  0.10952985    -0.27500
C1118       C  0.51168812  0.37970412  0.11746197     0.18500
C1119       C  0.49170519  0.44543538  0.11044916     0.12500
C1120       C  0.44670328  0.41951326  0.09513237    -0.11900
H1121       H  0.45305369  0.37055961  0.09696265     0.12800
C1122       C  0.53422005  0.36632354  0.12646688    -0.22700
H1123       H  0.52783922  0.41513759  0.12381810     0.08400
C1124       C  0.48715006  0.45910311  0.13371042     0.04700
C1125       C  0.48713528  0.48466694  0.13232480    -0.20000
C1126       C  0.49183872  0.49677265  0.10825992    -0.12200
C1127       C  0.49676664  0.48301931  0.08505481     0.13400
C1128       C  0.49660157  0.45750177  0.08646571    -0.22700
C1129       C  0.48228920  0.44667133  0.15989349    -0.05700
H1130       H  0.48363275  0.49530479  0.15009431     0.15000
C1131       C  0.50215826  0.49464481  0.05853254    -0.15900
H1132       H  0.50015229  0.44690252  0.06866730     0.09300
H1133       H  0.52959153  0.35383552  0.14310089     0.07100
H1134       H  0.54854980  0.37905514  0.13358386     0.08300
H1135       H  0.54200899  0.35571992  0.10974141     0.07400
H1136       H  0.45047328  0.43114694  0.07753572     0.02300
H1137       H  0.44064154  0.43119035  0.11191482     0.02800
H1138       H  0.43156711  0.40693657  0.08994918     0.06300
H1139       H  0.47896444  0.46002841  0.17609727     0.05200
H1140       H  0.49824702  0.43536727  0.16556176    -0.00500
H1141       H  0.46597322  0.43481679  0.15811903     0.00900
H1142       H  0.52061264  0.48909687  0.05180367     0.04600
H1143       H  0.50156242  0.51481163  0.05916670     0.06500
H1144       H  0.48854152  0.48843081  0.04363850     0.07400
N1145       N  0.52732481  0.23588419  0.57642186    -0.27000
N1146       N  0.51916574  0.21542647  0.58704440    -0.34900
C1147       C  0.52877405  0.19641230  0.57381168     0.01300
C1148       C  0.54406831  0.20540428  0.55429583     0.07300
C1149       C  0.54280459  0.23046692  0.55653316    -0.05800
H1150       H  0.52504872  0.17748402  0.57821775     0.08000
H1151       H  0.55180304  0.24377553  0.54405879     0.09200
Cu1152     Cu  0.49567773  0.21462064  0.61929489     0.44200
Cu1153     Cu  0.51517575  0.26999044  0.58809712     0.42000
Cu1154     Cu  0.46533518  0.27108293  0.63626941     0.43900
N1155       N  0.47180475  0.21827760  0.65097158    -0.34400
N1156       N  0.45971146  0.23849550  0.65647500    -0.28700
C1157       C  0.44532675  0.23449899  0.67775312    -0.04800
C1158       C  0.44889867  0.21076097  0.68619528     0.07400
C1159       C  0.46578628  0.20104498  0.66879672     0.01200
H1160       H  0.43354727  0.24800191  0.68671758     0.08900
H1161       H  0.47298152  0.18269620  0.66887375     0.08000
N1162       N  0.47962181  0.30195320  0.61801832    -0.35900
N1163       N  0.49817652  0.30150594  0.60121390    -0.28000
C1164       C  0.50447750  0.32449190  0.59507310    -0.03300
C1165       C  0.48931514  0.34017771  0.60881113     0.05300
C1166       C  0.47358726  0.32529730  0.62289736     0.03400
H1167       H  0.51919244  0.32936425  0.58178860     0.08500
H1168       H  0.45950899  0.33103086  0.63659994     0.07400
N1169       N  0.52071259  0.61239114  0.60552197    -0.36300
N1170       N  0.46789381  0.61396165  0.60530053    -0.56900
N1171       N  0.46667093  0.56077380  0.60899593    -0.36300
N1172       N  0.51962902  0.55931867  0.60634879    -0.56900
C1173       C  0.51716060  0.63631789  0.60038505     0.27200
C1174       C  0.54448479  0.60752995  0.60091074     0.27200
C1175       C  0.44283743  0.56556522  0.60441872     0.27200
C1176       C  0.47017509  0.53666125  0.60477477     0.27200
C1177       C  0.47235624  0.63802412  0.60828858     0.35900
C1178       C  0.44386821  0.61081251  0.60996157     0.35900
C1179       C  0.54386851  0.56269247  0.60947212     0.35900
C1180       C  0.51534079  0.53542261  0.61081741     0.35900
C1181       C  0.53899789  0.64685330  0.59264301    -0.21600
C1182       C  0.55624228  0.62868904  0.59295852    -0.21600
C1183       C  0.43092949  0.54413808  0.59767002    -0.21600
C1184       C  0.44818179  0.52591489  0.59785053    -0.21600
C1185       C  0.45101412  0.65026980  0.61444307    -0.22700
C1186       C  0.43294639  0.63303403  0.61546730    -0.22700
C1187       C  0.55508061  0.54077352  0.61560401    -0.22700
C1188       C  0.53701535  0.52348453  0.61639564    -0.22700
C1189       C  0.49522365  0.64929478  0.60447259    -0.18000
C1190       C  0.55625543  0.58498744  0.60550470    -0.18000
C1191       C  0.49241057  0.52389206  0.60822105    -0.18000
C1192       C  0.43128806  0.58845909  0.60765262    -0.18000
H1193       H  0.54227360  0.66576429  0.58771542     0.14900
H1194       H  0.57537198  0.63092999  0.58831142     0.14900
H1195       H  0.41175836  0.54181934  0.59324270     0.14900
H1196       H  0.44485972  0.50688202  0.59354095     0.14900
H1197       H  0.44867039  0.66961799  0.61770203     0.13200
H1198       H  0.41391003  0.63651338  0.61962585     0.13200
H1199       H  0.57430511  0.53752578  0.61890379     0.13200
H1200       H  0.53958311  0.50428267  0.62039614     0.13200
H1201       H  0.50846959  0.60085216  0.61485894     0.26400
H1202       H  0.47914437  0.57272279  0.61736299     0.26400
N1203       N  0.84202936  0.55927616  0.65898430    -0.27000
N1204       N  0.86291756  0.56899870  0.65127438    -0.34900
C1205       C  0.88091308  0.56087096  0.66712851     0.01300
C1206       C  0.87092433  0.54497762  0.68541033     0.07300
C1207       C  0.84627534  0.54427170  0.67965859    -0.05800
H1208       H  0.89991801  0.56580459  0.66513229     0.08000
H1209       H  0.83240107  0.53395098  0.68999421     0.09200
Cu1210     Cu  0.86632920  0.59202067  0.61892906     0.44200
Cu1211     Cu  0.80864964  0.56786871  0.64180482     0.42000
Cu1212     Cu  0.81027840  0.61324005  0.58929608     0.43900
N1213       N  0.86498874  0.61466363  0.58608582    -0.34400
N1214       N  0.84448529  0.62337940  0.57605135    -0.28700
C1215       C  0.84975969  0.63790794  0.55530791    -0.04800
C1216       C  0.87472593  0.63793159  0.55192090     0.07400
C1217       C  0.88385672  0.62298785  0.57166091     0.01200
H1218       H  0.83636411  0.64706347  0.54305932     0.08900
H1219       H  0.90277910  0.61858205  0.57536944     0.08000
N1220       N  0.77850749  0.59751618  0.60329824    -0.35900
N1221       N  0.77786144  0.58086380  0.62230175    -0.28000
C1222       C  0.75457903  0.57411255  0.62626868    -0.03300
C1223       C  0.73994354  0.58684392  0.60861321     0.05300
C1224       C  0.75570601  0.60174372  0.59462569     0.03400
H1225       H  0.74872820  0.56095434  0.64096991     0.08500
H1226       H  0.75098334  0.61453101  0.57906609     0.07400
N1227       N  0.46447368  0.93761996  0.58295845    -0.27000
N1228       N  0.47402121  0.95807037  0.59217134    -0.34900
C1229       C  0.46557390  0.97687911  0.57766666     0.01300
C1230       C  0.44972397  0.96781136  0.55866985     0.07300
C1231       C  0.44932578  0.94289926  0.56268512    -0.05800
H1232       H  0.47069253  0.99571738  0.58064844     0.08000
H1233       H  0.43959322  0.92949641  0.55099220     0.09200
Cu1234     Cu  0.49845224  0.95917715  0.62370057     0.44200
Cu1235     Cu  0.47496727  0.90334052  0.59607794     0.42000
Cu1236     Cu  0.52466130  0.90118814  0.64379541     0.43900
N1237       N  0.52267173  0.95522797  0.65515230    -0.34400
N1238       N  0.53290454  0.93430977  0.66195793    -0.28700
C1239       C  0.54787268  0.93815800  0.68280786    -0.04800
C1240       C  0.54666596  0.96255586  0.68963375     0.07400
C1241       C  0.53053535  0.97281661  0.67171741     0.01200
H1242       H  0.55838022  0.92412733  0.69266643     0.08900
H1243       H  0.52502248  0.99171414  0.67066720     0.08000
N1244       N  0.51059751  0.87054520  0.62471679    -0.35900
N1245       N  0.49194903  0.87136623  0.60802376    -0.28000
C1246       C  0.48646001  0.84859295  0.60016506    -0.03300
C1247       C  0.50259024  0.83268612  0.61218510     0.05300
C1248       C  0.51756910  0.84717978  0.62773875     0.03400
H1249       H  0.47175049  0.84393800  0.58673545     0.08500
H1250       H  0.53193463  0.84113990  0.64094082     0.07400
N1251       N  0.14388894  0.55891283  0.57226782    -0.27000
N1252       N  0.12333993  0.56806277  0.58169617    -0.34900
C1253       C  0.10454549  0.55919487  0.56746661     0.01300
C1254       C  0.11369447  0.54337599  0.54854635     0.07300
C1255       C  0.13868132  0.54354433  0.55216997    -0.05800
H1256       H  0.08560643  0.56369743  0.57087651     0.08000
H1257       H  0.15212403  0.53377478  0.54059065     0.09200
Cu1258     Cu  0.12172208  0.59153755  0.61407622     0.44200
Cu1259     Cu  0.17801746  0.56936802  0.58587383     0.42000
Cu1260     Cu  0.17870329  0.61744758  0.63586811     0.43900
N1261       N  0.12488415  0.61472981  0.64657929    -0.34400
N1262       N  0.14561041  0.62520759  0.65361435    -0.28700
C1263       C  0.14165549  0.63963115  0.67480742    -0.04800
C1264       C  0.11736525  0.63778856  0.68173004     0.07400
C1265       C  0.10724766  0.62181907  0.66349734     0.01200
H1266       H  0.15558358  0.65012639  0.68487531     0.08900
H1267       H  0.08844088  0.61596368  0.66243736     0.08000
N1268       N  0.20969323  0.60317666  0.61838502    -0.35900
N1269       N  0.20947377  0.58554555  0.60044790    -0.28000
C1270       C  0.23253375  0.58044833  0.59337324    -0.03300
C1271       C  0.24798243  0.59577612  0.60729063     0.05300
C1272       C  0.23289019  0.60966254  0.62329351     0.03400
H1273       H  0.23767274  0.56668743  0.57901644     0.08500
H1274       H  0.23835301  0.62332670  0.63763356     0.07400
N1275       N  0.52899675  0.93329009  0.83393518    -0.27000
N1276       N  0.52129962  0.95473877  0.84258326    -0.34900
C1277       C  0.53055565  0.97229554  0.82688295     0.01300
C1278       C  0.54507971  0.96148468  0.80775773     0.07300
C1279       C  0.54383055  0.93675830  0.81288570    -0.05800
H1280       H  0.52713997  0.99157197  0.82937477     0.08000
H1281       H  0.55243906  0.92230980  0.80166319     0.09200
Cu1282     Cu  0.49876395  0.95982035  0.87551863     0.44200
Cu1283     Cu  0.51719800  0.90009402  0.84942484     0.42000
Cu1284     Cu  0.47158725  0.90513561  0.90081768     0.43900
N1285       N  0.47525207  0.95938297  0.90807924    -0.34400
N1286       N  0.46453582  0.93920065  0.91636649    -0.28700
C1287       C  0.44978363  0.94442345  0.93690082    -0.04800
C1288       C  0.45154540  0.96902511  0.94215643     0.07400
C1289       C  0.46788529  0.97803550  0.92357392     0.01200
H1290       H  0.43895387  0.93116107  0.94756817     0.08900
H1291       H  0.47367636  0.99675199  0.92122868     0.08000
N1292       N  0.48307603  0.87226262  0.88532144    -0.35900
N1293       N  0.49985481  0.87018756  0.86661376    -0.28000
C1294       C  0.50385689  0.84636583  0.86202332    -0.03300
C1295       C  0.48878546  0.83280952  0.87855985     0.05300
C1296       C  0.47608315  0.84995295  0.89324168     0.03400
H1297       H  0.51716760  0.83938590  0.84809637     0.08500
H1298       H  0.46373767  0.84667628  0.90958616     0.07400
N1299       N  0.46988117  0.56005489  0.90226364    -0.36300
N1300       N  0.46958365  0.61332389  0.89895873    -0.56900
N1301       N  0.52263634  0.61384528  0.90310119    -0.36300
N1302       N  0.52291737  0.56041543  0.90310952    -0.56900
C1303       C  0.44607857  0.56394924  0.89662911     0.27200
C1304       C  0.47431653  0.53603602  0.89845856     0.27200
C1305       C  0.51863185  0.63778001  0.89822889     0.27200
C1306       C  0.54683409  0.60975976  0.90043220     0.27200
C1307       C  0.44526443  0.60946756  0.90035443     0.35900
C1308       C  0.47296893  0.63770129  0.90045996     0.35900
C1309       C  0.51942621  0.53614144  0.90558277     0.35900
C1310       C  0.54706494  0.56431348  0.90620126     0.35900
C1311       C  0.43512743  0.54202832  0.88984339    -0.21600
C1312       C  0.45291428  0.52445411  0.89098469    -0.21600
C1313       C  0.54071650  0.64920748  0.89323402    -0.21600
C1314       C  0.55847380  0.63156729  0.89461451    -0.21600
C1315       C  0.43313290  0.63152574  0.90249466    -0.22700
C1316       C  0.45063941  0.64938310  0.90245255    -0.22700
C1317       C  0.54147714  0.52454554  0.91009348    -0.22700
C1318       C  0.55897897  0.54236587  0.91044686    -0.22700
C1319       C  0.43362646  0.58651575  0.89814902    -0.18000
C1320       C  0.49691893  0.52401080  0.90213393    -0.18000
C1321       C  0.55890201  0.58707619  0.90353545    -0.18000
C1322       C  0.49572971  0.64979463  0.89858928    -0.18000
H1323       H  0.41625179  0.53897284  0.88451989     0.14900
H1324       H  0.45034155  0.50529905  0.88672055     0.14900
H1325       H  0.54376586  0.66828269  0.88892751     0.14900
H1326       H  0.57778328  0.63451130  0.89159717     0.14900
H1327       H  0.41365716  0.63448830  0.90360364     0.13200
H1328       H  0.44725580  0.66877899  0.90353822     0.13200
H1329       H  0.54468487  0.50521492  0.91248367     0.13200
H1330       H  0.57832830  0.53943084  0.91317380     0.13200
H1331       H  0.48172590  0.57258604  0.91066595     0.26400
H1332       H  0.50991415  0.60140878  0.90988194     0.26400
N1333       N  0.14942489  0.62293272  0.82864541    -0.27000
N1334       N  0.12827877  0.61396005  0.83667008    -0.34900
C1335       C  0.11064940  0.62137578  0.81992397     0.01300
C1336       C  0.12103785  0.63599755  0.80063497     0.07300
C1337       C  0.14563234  0.63678804  0.80685155    -0.05800
H1338       H  0.09155452  0.61681348  0.82195203     0.08000
H1339       H  0.15977034  0.64634173  0.79607373     0.09200
Cu1340     Cu  0.12369863  0.59214469  0.87011066     0.44200
Cu1341     Cu  0.18259459  0.61419565  0.84665287     0.42000
Cu1342     Cu  0.17852336  0.56822204  0.89879068     0.43900
N1343       N  0.12375371  0.56820924  0.90214772    -0.34400
N1344       N  0.14397046  0.55840903  0.91165514    -0.28700
C1345       C  0.13820888  0.54275623  0.93125791    -0.04800
C1346       C  0.11319580  0.54300685  0.93453729     0.07400
C1347       C  0.10457615  0.55944210  0.91587286     0.01200
H1348       H  0.15132837  0.53250974  0.94280961     0.08900
H1349       H  0.08577990  0.56445515  0.91233432     0.08000
N1350       N  0.21114037  0.58259841  0.88501374    -0.35900
N1351       N  0.21273171  0.59945866  0.86628913    -0.28000
C1352       C  0.23641953  0.60463935  0.86214467    -0.03300
C1353       C  0.25040103  0.59059176  0.87931747     0.05300
C1354       C  0.23370407  0.57668488  0.89328273     0.03400
H1355       H  0.24288309  0.61716209  0.84713671     0.08500
H1356       H  0.23767112  0.56331068  0.90850016     0.07400
N1357       N  0.46774447  0.23881212  0.83206028    -0.27000
N1358       N  0.47765978  0.21786525  0.83932881    -0.34900
C1359       C  0.46985034  0.20020758  0.82277888     0.01300
C1360       C  0.45395275  0.21043640  0.80453687     0.07300
C1361       C  0.45296288  0.23490486  0.81105708    -0.05800
H1362       H  0.47480351  0.18119039  0.82441706     0.08000
H1363       H  0.44238549  0.24887330  0.80118274     0.09200
Cu1364     Cu  0.50013692  0.21383108  0.87249767     0.44200
Cu1365     Cu  0.47524102  0.27193694  0.85059222     0.42000
Cu1366     Cu  0.51771456  0.26959762  0.90576907     0.43900
N1367       N  0.52223056  0.21484118  0.90624178    -0.34400
N1368       N  0.52962905  0.23534726  0.91747690    -0.28700
C1369       C  0.54439838  0.23002279  0.93807068    -0.04800
C1370       C  0.54600448  0.20497627  0.94022094     0.07400
C1371       C  0.53162837  0.19589244  0.91985452     0.01200
H1372       H  0.55266908  0.24339446  0.95107591     0.08900
H1373       H  0.52840588  0.17693336  0.91513598     0.08000
N1374       N  0.50208930  0.30160872  0.89188464    -0.35900
N1375       N  0.48675424  0.30258007  0.87161483    -0.28000
C1376       C  0.48084310  0.32601132  0.86702278    -0.03300
C1377       C  0.49273242  0.34055503  0.88558417     0.05300
C1378       C  0.50615499  0.32432903  0.90085067     0.03400
H1379       H  0.46961310  0.33187189  0.85058100     0.08500
H1380       H  0.51826194  0.32875317  0.91716412     0.07400
N1381       N  0.84105459  0.55863582  0.82789239    -0.27000
N1382       N  0.86223381  0.56680548  0.83681669    -0.34900
C1383       C  0.88017121  0.55806345  0.82132698     0.01300
C1384       C  0.86987445  0.54338260  0.80202492     0.07300
C1385       C  0.84505524  0.54400404  0.80680475    -0.05800
H1386       H  0.89934442  0.56194110  0.82408626     0.08000
H1387       H  0.83091617  0.53506700  0.79538292     0.09200
Cu1388     Cu  0.86637884  0.58917446  0.86983446     0.44200
Cu1389     Cu  0.80768854  0.56920543  0.84368552     0.42000
Cu1390     Cu  0.81157283  0.61560653  0.89518800     0.43900
N1391       N  0.86576442  0.61246167  0.90236810    -0.34400
N1392       N  0.84558116  0.62310431  0.91074594    -0.28700
C1393       C  0.85090285  0.63782845  0.93130415    -0.04800
C1394       C  0.87558821  0.63611417  0.93633721     0.07400
C1395       C  0.88449860  0.61982040  0.91772358     0.01200
H1396       H  0.83768790  0.64860224  0.94210803     0.08900
H1397       H  0.90322195  0.61409075  0.91520659     0.08000
N1398       N  0.77922250  0.60116488  0.88135368    -0.35900
N1399       N  0.77763052  0.58402537  0.86292866    -0.28000
C1400       C  0.75415083  0.57729976  0.86044923    -0.03300
C1401       C  0.74050292  0.59057596  0.87853343     0.05300
C1402       C  0.75691633  0.60576232  0.89110877    -0.00600
H1403       H  0.74761512  0.56330326  0.84705937     0.08500
H1404       H  0.75309056  0.61847190  0.90703014     0.07400
N1405       N  0.03360344  0.73727190  0.83022120    -0.27000
N1406       N  0.02527486  0.71629562  0.83941868    -0.34900
C1407       C  0.03351627  0.69816577  0.82379976     0.01300
C1408       C  0.04790889  0.70831200  0.80412028     0.07300
C1409       C  0.04770722  0.73306427  0.80886139    -0.05800
H1410       H  0.02929300  0.67907715  0.82653218     0.08000
H1411       H  0.05643601  0.74708026  0.79710380     0.09200
Cu1412     Cu  0.00245969  0.71361081  0.87220269     0.44200
Cu1413     Cu  0.02389722  0.77088260  0.84541771     0.42000
Cu1414     Cu  0.97788557  0.77134243  0.89611928     0.43900
N1415       N  0.97758836  0.71673366  0.90309906    -0.34400
N1416       N  0.96767471  0.73758739  0.91063966    -0.28700
C1417       C  0.95175012  0.73329938  0.93040077    -0.04800
C1418       C  0.95200691  0.70866726  0.93586279     0.07400
C1419       C  0.96857877  0.69867084  0.91827345     0.01200
H1420       H  0.94143234  0.74721804  0.94066424     0.08900
H1421       H  0.97365222  0.67969224  0.91654628     0.08000
N1422       N  0.99404139  0.80267571  0.88152915    -0.35900
N1423       N  0.01097905  0.80243675  0.86286911    -0.28000
C1424       C  0.01776319  0.82543486  0.85751745    -0.03300
C1425       C  0.00473486  0.84093720  0.87393361     0.05300
C1426       C  0.98967253  0.82586391  0.88869029     0.03400
H1427       H  0.03056808  0.83039028  0.84211283     0.08500
H1428       H  0.97644655  0.83136378  0.90348020     0.07400
N1429       N  0.02609414  0.11433803  0.86396774    -0.36300
N1430       N  0.97296759  0.11330993  0.86756268    -0.56900
N1431       N  0.97430742  0.06012504  0.86972457    -0.36300
N1432       N  0.02745159  0.06122973  0.86936847    -0.56900
C1433       C  0.02150658  0.13843188  0.86685508     0.27200
C1434       C  0.05027321  0.11090521  0.86779433     0.27200
C1435       C  0.95036993  0.06392721  0.87454429     0.27200
C1436       C  0.97908611  0.03644883  0.87498764     0.27200
C1437       C  0.97604412  0.13734165  0.86260070     0.35900
C1438       C  0.94878933  0.10877421  0.86554925     0.35900
C1439       C  0.05149495  0.06531151  0.86554123     0.35900
C1440       C  0.02423078  0.03683513  0.86804229     0.35900
C1441       C  0.04319412  0.15055025  0.87201564    -0.21600
C1442       C  0.06131140  0.13323502  0.87252953    -0.21600
C1443       C  0.93970632  0.04223863  0.88268528    -0.21600
C1444       C  0.95778802  0.02490505  0.88286589    -0.21600
C1445       C  0.95366347  0.14816971  0.85770142    -0.22700
C1446       C  0.93642274  0.13009206  0.85955072    -0.22700
C1447       C  0.06366095  0.04336727  0.86232980    -0.22700
C1448       C  0.04639385  0.02535174  0.86383785    -0.22700
C1449       C  0.99851028  0.15003211  0.86412659    -0.18000
C1450       C  0.06293342  0.08841390  0.86614723    -0.18000
C1451       C  0.00179172  0.02458075  0.87163364    -0.18000
C1452       C  0.93748554  0.08600073  0.87049360    -0.18000
H1453       H  0.04575584  0.16990664  0.87502933     0.14900
H1454       H  0.08046736  0.13675361  0.87598218     0.14900
H1455       H  0.92077640  0.03912044  0.88770546     0.14900
H1456       H  0.95545677  0.00591255  0.88806961     0.14900
H1457       H  0.95009641  0.16717044  0.85347559     0.13200
H1458       H  0.91697067  0.13243091  0.85702340     0.13200
H1459       H  0.08299076  0.04059048  0.85930153     0.13200
H1460       H  0.04981629  0.00599265  0.86221055     0.13200
H1461       H  0.01379083  0.10125569  0.85718030     0.26400
H1462       H  0.98614472  0.07234879  0.86049198     0.26400
N1463       N  0.35065449  0.12291851  0.83306886    -0.27000
N1464       N  0.37137565  0.11286497  0.84082393    -0.34900
C1465       C  0.38939324  0.12043821  0.82461944     0.01300
C1466       C  0.37950410  0.13630283  0.80613059     0.07300
C1467       C  0.35496487  0.13750300  0.81210559    -0.05800
H1468       H  0.40832283  0.11518976  0.82651059     0.08000
H1469       H  0.34116248  0.14788485  0.80170566     0.09200
Cu1470     Cu  0.37391946  0.09007146  0.87371316     0.44200
Cu1471     Cu  0.31714801  0.11510872  0.84999452     0.42000
Cu1472     Cu  0.31605605  0.06581832  0.89737437     0.43900
N1473       N  0.37048547  0.06725454  0.90648220    -0.34400
N1474       N  0.34962862  0.05733599  0.91404474    -0.28700
C1475       C  0.35374989  0.04271772  0.93505518    -0.04800
C1476       C  0.37826187  0.04383170  0.94126847     0.07400
C1477       C  0.38833841  0.05960313  0.92286150     0.01200
H1478       H  0.33982852  0.03245866  0.94538987     0.08900
H1479       H  0.40730258  0.06478172  0.92116898     0.08000
N1480       N  0.28481980  0.08223468  0.88243871    -0.35900
N1481       N  0.28534195  0.10093557  0.86587362    -0.28000
C1482       C  0.26237477  0.10791531  0.86048621    -0.03300
C1483       C  0.24661201  0.09300567  0.87448266     0.05300
C1484       C  0.26145461  0.07674099  0.88794395     0.03400
H1485       H  0.25749228  0.12240940  0.84689851     0.08500
H1486       H  0.25568821  0.06202586  0.90080664     0.07400
N1487       N  0.95728687  0.43890854  0.82701428    -0.27000
N1488       N  0.96667792  0.45950147  0.83606188    -0.34900
C1489       C  0.95887809  0.47808801  0.82084894     0.01300
C1490       C  0.94353170  0.46879009  0.80156871     0.07300
C1491       C  0.94280301  0.44394364  0.80608799    -0.05800
H1492       H  0.96378098  0.49698359  0.82384115     0.08000
H1493       H  0.93299108  0.43045383  0.79459692     0.09200
Cu1494     Cu  0.98923127  0.46160064  0.86893038     0.44200
Cu1495     Cu  0.96637877  0.40474822  0.84208025     0.42000
Cu1496     Cu  0.01307873  0.40449712  0.89342258     0.43900
N1497       N  0.01223626  0.45901090  0.90137799    -0.34400
N1498       N  0.02196819  0.43831168  0.90964479    -0.28700
C1499       C  0.03714675  0.44307971  0.93007216    -0.04800
C1500       C  0.03655920  0.46787391  0.93505410     0.07400
C1501       C  0.02050167  0.47738869  0.91660907     0.01200
H1502       H  0.04754593  0.42947502  0.94074644     0.08900
H1503       H  0.01559825  0.49633195  0.91402787     0.08000
N1504       N  0.99939151  0.37303913  0.87555290    -0.35900
N1505       N  0.98205716  0.37307014  0.85722516    -0.28000
C1506       C  0.97759100  0.34993746  0.84967585    -0.03300
C1507       C  0.99309582  0.33460136  0.86359670     0.05300
C1508       C  0.00639246  0.34990186  0.88009217     0.03400
H1509       H  0.96439246  0.34469573  0.83471879     0.08500
H1510       H  0.02023000  0.34459248  0.89431136     0.07400
N1511       N  0.65002119  0.11311025  0.91661684    -0.27000
N1512       N  0.62928680  0.10302816  0.90893072    -0.34900
C1513       C  0.61100927  0.11186541  0.92389312     0.01300
C1514       C  0.62061995  0.12859995  0.94156715     0.07300
C1515       C  0.64539392  0.12904588  0.93637754    -0.05800
H1516       H  0.59207793  0.10665517  0.92186527     0.08000
H1517       H  0.65911111  0.13962976  0.94667598     0.09200
Cu1518     Cu  0.62663743  0.07833693  0.87784714     0.44200
Cu1519     Cu  0.68367346  0.10293401  0.90114346     0.42000
Cu1520     Cu  0.68336404  0.05226370  0.85437552     0.43900
N1521       N  0.62896607  0.05509769  0.84540923    -0.34400
N1522       N  0.64948856  0.04468106  0.83759754    -0.28700
C1523       C  0.64485064  0.03066553  0.81619836    -0.04800
C1524       C  0.62036471  0.03272984  0.81000358     0.07400
C1525       C  0.61083602  0.04836195  0.82889905     0.01200
H1526       H  0.65844749  0.02032975  0.80545410     0.08900
H1527       H  0.59210234  0.05430513  0.83063091     0.08000
N1528       N  0.71504164  0.06797678  0.86948360    -0.35900
N1529       N  0.71502255  0.08693891  0.88574002    -0.28000
C1530       C  0.73818051  0.09371128  0.89049733    -0.03300
C1531       C  0.75358030  0.07844982  0.87642116     0.05300
C1532       C  0.73827914  0.06215344  0.86358666     0.03400
H1533       H  0.74335708  0.10848508  0.90356322     0.08500
H1534       H  0.74363259  0.04755436  0.85035756     0.07400
N1535       N  0.96189358  0.44062159  0.66191067    -0.27000
N1536       N  0.97021057  0.46137413  0.65211696    -0.34900
C1537       C  0.96121006  0.47993787  0.66662452     0.01300
C1538       C  0.94616959  0.47033834  0.68608555     0.07300
C1539       C  0.94696738  0.44540874  0.68247762    -0.05800
H1540       H  0.96493157  0.49899386  0.66292853     0.08000
H1541       H  0.93774409  0.43171631  0.69423952     0.09200
Cu1542     Cu  0.99242999  0.46320716  0.61863852     0.44200
Cu1543     Cu  0.97197458  0.40670336  0.64758830     0.42000
Cu1544     Cu  0.01304294  0.40558747  0.59099440     0.43900
N1545       N  0.01432276  0.46026328  0.58499842    -0.34400
N1546       N  0.02264648  0.43935073  0.57558382    -0.28700
C1547       C  0.03717516  0.44385438  0.55456958    -0.04800
C1548       C  0.03767837  0.46873576  0.55033389     0.07400
C1549       C  0.02291905  0.47857367  0.56986496     0.01200
H1550       H  0.04632413  0.43000946  0.54295273     0.08900
H1551       H  0.01907746  0.49766579  0.57316332     0.08000
N1552       N  0.99966294  0.37453315  0.60951602    -0.35900
N1553       N  0.98490104  0.37498103  0.63028519    -0.28000
C1554       C  0.97990815  0.35199381  0.63773947    -0.03300
C1555       C  0.99177562  0.33622200  0.62055216     0.05300
C1556       C  0.00431076  0.35121830  0.60310072     0.03400
H1557       H  0.96901457  0.34733865  0.65489114     0.08500
H1558       H  0.01591304  0.34557157  0.58682496     0.07400
N1559       N  0.97066998  0.11645726  0.61246786    -0.36300
N1560       N  0.97097142  0.06324968  0.61400010    -0.56900
N1561       N  0.02355275  0.06362759  0.61103405    -0.36300
N1562       N  0.02327635  0.11682165  0.61168775    -0.56900
C1563       C  0.94716469  0.11200214  0.61884062     0.27200
C1564       C  0.97484523  0.14039765  0.61695290     0.27200
C1565       C  0.01950442  0.03977520  0.61621285     0.27200
C1566       C  0.04722902  0.06819647  0.61660792     0.27200
C1567       C  0.94680619  0.06706140  0.61128448     0.35900
C1568       C  0.97463401  0.03926273  0.60955591     0.35900
C1569       C  0.01940373  0.14083564  0.60762758     0.35900
C1570       C  0.04732089  0.11297405  0.60793072     0.35900
C1571       C  0.93610763  0.13344293  0.62702858    -0.21600
C1572       C  0.95356572  0.15138020  0.62579385    -0.21600
C1573       C  0.04096006  0.02892847  0.62467163    -0.21600
C1574       C  0.05842943  0.04689695  0.62509045    -0.21600
C1575       C  0.93502025  0.04535668  0.60543999    -0.22700
C1576       C  0.95268178  0.02772705  0.60431477    -0.22700
C1577       C  0.04112600  0.15234213  0.60129244    -0.22700
C1578       C  0.05884186  0.13466841  0.60151225    -0.22700
C1579       C  0.93497949  0.08950820  0.61569310    -0.18000
C1580       C  0.99698035  0.15280970  0.61199180    -0.18000
C1581       C  0.05935895  0.09068544  0.61283881    -0.18000
C1582       C  0.99725542  0.02732691  0.61220191    -0.18000
H1583       H  0.91731481  0.13598092  0.63295067     0.14900
H1584       H  0.95078468  0.17038591  0.63062992     0.14900
H1585       H  0.04377622  0.01002783  0.62995957     0.14900
H1586       H  0.07732290  0.04445767  0.63070549     0.14900
H1587       H  0.91567894  0.04246665  0.60257441     0.13200
H1588       H  0.94965020  0.00855780  0.60050866     0.13200
H1589       H  0.04401085  0.17153947  0.59753615     0.13200
H1590       H  0.07808403  0.13754364  0.59795636     0.13200
H1591       H  0.98227803  0.10449629  0.60275347     0.26400
H1592       H  0.01161655  0.07537555  0.60143428     0.26400
N1593       N  0.64855937  0.11277342  0.58098840    -0.27000
N1594       N  0.62771295  0.10463255  0.59076984    -0.34900
C1595       C  0.60923113  0.11391941  0.57629872     0.01300
C1596       C  0.61896149  0.12895027  0.55689239     0.07300
C1597       C  0.64390395  0.12786617  0.56050772    -0.05800
H1598       H  0.59013636  0.11021474  0.57982451     0.08000
H1599       H  0.65770179  0.13680464  0.54862718     0.09200
Cu1600     Cu  0.62553996  0.08176381  0.62385925     0.44200
Cu1601     Cu  0.68246971  0.10163825  0.59452092     0.42000
Cu1602     Cu  0.68234402  0.05562955  0.64631736     0.43900
N1603       N  0.62855071  0.05867905  0.65669830    -0.34400
N1604       N  0.64919949  0.04817013  0.66395097    -0.28700
C1605       C  0.64505459  0.03358570  0.68499015    -0.04800
C1606       C  0.62068657  0.03530103  0.69159803     0.07400
C1607       C  0.61076435  0.05140585  0.67334164     0.01200
H1608       H  0.65885453  0.02287924  0.69499229     0.08900
H1609       H  0.59191091  0.05703644  0.67192628     0.08000
N1610       N  0.71362281  0.06951023  0.62927002    -0.35900
N1611       N  0.71376557  0.08629972  0.61043463    -0.28000
C1612       C  0.73698318  0.09200833  0.60467356    -0.03300
C1613       C  0.75220304  0.07809687  0.62060519     0.05300
C1614       C  0.73667925  0.06424622  0.63616826     0.03400
H1615       H  0.74239095  0.10555947  0.59019719     0.08500
H1616       H  0.74149021  0.05214824  0.65227290     0.07400
N1617       N  0.02800562  0.74061237  0.66172469    -0.27000
N1618       N  0.01811883  0.71988659  0.65371270    -0.34900
C1619       C  0.02638282  0.70163463  0.66916326     0.01300
C1620       C  0.04258954  0.71123184  0.68747397     0.07300
C1621       C  0.04325668  0.73597667  0.68215115    -0.05800
H1622       H  0.02149369  0.68267014  0.66672796     0.08000
H1623       H  0.05388496  0.74962759  0.69249069     0.09200
Cu1624     Cu  0.99508414  0.71706413  0.62100358     0.44200
Cu1625     Cu  0.01948457  0.77428726  0.64490278     0.42000
Cu1626     Cu  0.97208292  0.77364138  0.59428972     0.43900
N1627       N  0.97256267  0.71917318  0.58781499    -0.34400
N1628       N  0.96300769  0.73980545  0.57912552    -0.28700
C1629       C  0.94879172  0.73514127  0.55791841    -0.04800
C1630       C  0.94985410  0.71046474  0.55269238     0.07400
C1631       C  0.96509787  0.70085959  0.57196003     0.01200
H1632       H  0.93900613  0.74881457  0.54666820     0.08900
H1633       H  0.97017268  0.68195446  0.57446299     0.08000
N1634       N  0.98863036  0.80511015  0.60800445    -0.35900
N1635       N  0.00612948  0.80542761  0.62611474    -0.28000
C1636       C  0.01294573  0.82866253  0.63033563    -0.03300
C1637       C  0.99930859  0.84366053  0.61382994     0.05300
C1638       C  0.98392901  0.82805274  0.60017803     0.03400
H1639       H  0.02614787  0.83416552  0.64513170     0.08500
H1640       H  0.97024732  0.83302211  0.58563381     0.07400
N1641       N  0.34596474  0.05784124  0.58235538    -0.27000
N1642       N  0.36636904  0.06873297  0.58977296    -0.34900
C1643       C  0.38483099  0.06058331  0.57464040     0.01300
C1644       C  0.37567808  0.04346460  0.55715179     0.07300
C1645       C  0.35100599  0.04207043  0.56259625    -0.05800
H1646       H  0.40358463  0.06644094  0.57652221     0.08000
H1647       H  0.33762978  0.03085461  0.55256488     0.09200
Cu1648     Cu  0.36866007  0.09311668  0.62104939     0.44200
Cu1649     Cu  0.31212322  0.06630899  0.59832608     0.42000
Cu1650     Cu  0.31219209  0.11357382  0.64938718     0.43900
N1651       N  0.36675159  0.11510869  0.65441849    -0.34400
N1652       N  0.34603823  0.12340627  0.66430661    -0.28700
C1653       C  0.35092551  0.13741040  0.68564312    -0.04800
C1654       C  0.37587618  0.13752951  0.68954959     0.07400
C1655       C  0.38535199  0.12318075  0.66946928     0.01200
H1656       H  0.33729984  0.14633014  0.69776952     0.08900
H1657       H  0.40436266  0.11912196  0.66586584     0.08000
N1658       N  0.28086175  0.09829703  0.63341196    -0.35900
N1659       N  0.28082148  0.08080919  0.61528482    -0.28000
C1660       C  0.25763217  0.07463756  0.60980672    -0.03300
C1661       C  0.24240406  0.08873076  0.62543504     0.05300
C1662       C  0.25771265  0.10373659  0.63988563     0.03400
H1663       H  0.25224168  0.06100417  0.59539963     0.08500
H1664       H  0.25243093  0.11740673  0.65428299     0.07400
O1665       O  0.07898333  0.53796986  0.96311460    -0.72700
O1666       O  0.04278730  0.50217490  0.52081601    -0.73700
O1667       O  0.07958879  0.53828167  0.51996367    -0.62300
O1668       O  0.04215055  0.50170712  0.96392254    -0.70700
O1669       O  0.07034842  0.47268365  0.96414686    -0.70200
O1670       O  0.10812495  0.50958818  0.51962043    -0.61500
O1671       O  0.07084773  0.47302487  0.52031033    -0.74000
O1672       O  0.10754430  0.50931063  0.96351522    -0.72800
Cu1673     Cu  0.05986697  0.52103529  0.99194525     1.04600
Cu1674     Cu  0.09019206  0.49013685  0.99188118     1.04300
C1675       C  0.09915503  0.52940745  0.95452869     0.93500
C1676       C  0.05106433  0.48192966  0.52952254     0.92700
C1677       C  0.09981723  0.52975987  0.52846265     0.84800
C1678       C  0.05031405  0.48137284  0.95533836     0.91100
O1679       O  0.57826834  0.19973648  0.52610063    -0.72700
O1680       O  0.61591788  0.16233715  0.97090147    -0.73700
O1681       O  0.57925235  0.19957465  0.97001307    -0.62300
O1682       O  0.61482646  0.16243111  0.52721045    -0.70700
O1683       O  0.58562164  0.13441598  0.52720435    -0.70200
O1684       O  0.55062824  0.17097437  0.96911557    -0.61500
O1685       O  0.58680183  0.13423262  0.97031728    -0.74000
O1686       O  0.54954458  0.17121083  0.52600451    -0.72800
Cu1687     Cu  0.59809408  0.18200415  0.99858899     1.04600
Cu1688     Cu  0.56715513  0.15171220  0.99813923     1.04300
C1689       C  0.55797668  0.19141989  0.53461764     0.93500
C1690       C  0.60719900  0.14238695  0.96189333     0.92700
C1691       C  0.55929810  0.19113718  0.96064785     0.84800
C1692       C  0.60580852  0.14260444  0.53620434     0.91100
O1693       O  0.94553929  0.67701236  0.52298524    -0.72700
O1694       O  0.90909700  0.64041463  0.96605112    -0.73700
O1695       O  0.94624295  0.67593508  0.96597458    -0.62300
O1696       O  0.90856702  0.64148422  0.52296177    -0.70700
O1697       O  0.88028859  0.67043575  0.52156262    -0.70200
O1698       O  0.91844490  0.70535637  0.96530621    -0.61500
O1699       O  0.88098608  0.66953324  0.96550529    -0.74000
O1700       O  0.91764028  0.70630711  0.52157912    -0.72800
Cu1701     Cu  0.92837074  0.65768669  0.99451350     1.04600
Cu1702     Cu  0.89838219  0.68893658  0.99343643     1.04300
C1703       C  0.93714921  0.69732305  0.53137340     0.93500
C1704       C  0.88924286  0.64926716  0.95691067     0.92700
C1705       C  0.93824252  0.69604250  0.95665824     0.84800
C1706       C  0.88851519  0.65054801  0.53119600     0.91100
O1707       O  0.41717124  0.97307703  0.52801745    -0.72700
O1708       O  0.38183857  0.01075545  0.97137484    -0.73700
O1709       O  0.41824951  0.97385685  0.97169151    -0.62300
O1710       O  0.38069860  0.01012208  0.52756408    -0.70700
O1711       O  0.40972228  0.03832515  0.52863519    -0.70200
O1712       O  0.44710564  0.00223564  0.97225479    -0.61500
O1713       O  0.41100328  0.03882460  0.97178841    -0.74000
O1714       O  0.44583039  0.00162848  0.52939861    -0.72800
Cu1715     Cu  0.39849887  0.99095840  0.99963907     1.04600
Cu1716     Cu  0.42944330  0.02124862  0.00058963     1.04300
C1717       C  0.43696923  0.98150129  0.53774944     0.93500
C1718       C  0.39094374  0.03056968  0.96251690     0.92700
C1719       C  0.43839174  0.98238812  0.96298861     0.84800
C1720       C  0.38932756  0.02998807  0.53684821     0.91100
O1721       O  0.04880681  0.67732442  0.71621788    -0.72700
O1722       O  0.08786264  0.64010261  0.77055311    -0.73700
O1723       O  0.05134619  0.67584074  0.77319737    -0.62300
O1724       O  0.08543034  0.64124714  0.71342376    -0.70700
O1725       O  0.11403492  0.66987967  0.71316936    -0.70200
O1726       O  0.07951226  0.70491023  0.77223471    -0.61500
O1727       O  0.11651848  0.66866283  0.76974846    -0.74000
O1728       O  0.07699133  0.70635103  0.71593051    -0.72800
Cu1729     Cu  0.06739225  0.65759765  0.74333287     1.04600
Cu1730     Cu  0.09777586  0.68843876  0.74270952     1.04300
C1731       C  0.05675095  0.69772355  0.70754638     0.93500
C1732       C  0.10804119  0.64874351  0.77910272     0.92700
C1733       C  0.06016151  0.69574073  0.78218100     0.84800
C1734       C  0.10503893  0.65018720  0.70382466     0.91100
O1735       O  0.38334640  0.16966986  0.77647004    -0.72700
O1736       O  0.41751275  0.20681525  0.71855625    -0.73700
O1737       O  0.38100723  0.17001724  0.72024631    -0.62300
O1738       O  0.42007104  0.20657155  0.77515331    -0.70700
O1739       O  0.44830938  0.17761859  0.77423106    -0.70200
O1740       O  0.40998902  0.14182827  0.71825840    -0.61500
O1741       O  0.44611422  0.17822446  0.71718049    -0.74000
O1742       O  0.41200222  0.14111993  0.77524884    -0.72800
Cu1743     Cu  0.39950238  0.18928091  0.74769627     1.04600
Cu1744     Cu  0.43012349  0.15871437  0.74619001     1.04300
C1745       C  0.39224021  0.14961614  0.78495893     0.93500
C1746       C  0.43701089  0.19811001  0.70845249     0.92700
C1747       C  0.38954418  0.15034249  0.71039457     0.84800
C1748       C  0.44018497  0.19768163  0.78357612     0.91100
O1749       O  0.94051812  0.50372122  0.71553720    -0.72700
O1750       O  0.90312109  0.53892931  0.77239212    -0.73700
O1751       O  0.93944780  0.50265001  0.77246073    -0.62300
O1752       O  0.90390222  0.53987504  0.71551870    -0.70700
O1753       O  0.87508892  0.51144669  0.71482735    -0.70200
O1754       O  0.91092078  0.47395225  0.77110176    -0.61500
O1755       O  0.87410663  0.51072760  0.77114805    -0.74000
O1756       O  0.91216942  0.47483564  0.71492008    -0.72800
Cu1757     Cu  0.92273324  0.52231284  0.74400488     1.04600
Cu1758     Cu  0.89206349  0.49174349  0.74293229     1.04300
C1759       C  0.93228712  0.48362517  0.70641467     0.93500
C1760       C  0.88287593  0.53041337  0.78079023     0.92700
C1761       C  0.93072780  0.48242987  0.78071724     0.84800
C1762       C  0.88388781  0.53149355  0.70625695     0.91100
O1763       O  0.61574834  0.00088332  0.77845424    -0.72700
O1764       O  0.57921344  0.96578345  0.72068063    -0.73700
O1765       O  0.61630824  0.00216310  0.72184589    -0.62300
O1766       O  0.57829342  0.96480128  0.77730325    -0.70700
O1767       O  0.55061468  0.99430515  0.77771683    -0.70200
O1768       O  0.58787102  0.03094316  0.72193864    -0.61500
O1769       O  0.55125065  0.99502285  0.72060970    -0.74000
O1770       O  0.58754032  0.02988178  0.77908839    -0.72800
Cu1771     Cu  0.59839369  0.98239616  0.74956299     1.04600
Cu1772     Cu  0.56834356  0.01354371  0.74983936     1.04300
C1773       C  0.60729082  0.02066895  0.78810831     0.93500
C1774       C  0.55961981  0.97500450  0.71135864     0.92700
C1775       C  0.60778414  0.02224381  0.71289221     0.84800
C1776       C  0.55859934  0.97398699  0.78649062     0.91100
C1777       C  0.12335631  0.09780504  0.64082996    -0.22200
C1778       C  0.13742806  0.09006549  0.61917115     0.09800
C1779       C  0.12588726  0.08278209  0.59534387     0.10200
C1780       C  0.10036663  0.08323243  0.59379958    -0.17100
C1781       C  0.08628347  0.09102669  0.61546012    -0.27500
C1782       C  0.09787904  0.09852613  0.63924913     0.18500
C1783       C  0.16427406  0.09008605  0.62176348     0.12500
C1784       C  0.14052228  0.07492179  0.57149256    -0.11900
H1785       H  0.09130748  0.07756700  0.57563637     0.12800
C1786       C  0.08399036  0.10725701  0.66330764    -0.22700
H1787       H  0.13235075  0.10340720  0.65906476     0.08400
C1788       C  0.17781726  0.11184272  0.61982417     0.04700
C1789       C  0.20331328  0.11089299  0.62174278    -0.20000
C1790       C  0.21548933  0.08868465  0.62564077    -0.12200
C1791       C  0.20174968  0.06703657  0.62881432     0.13400
C1792       C  0.17630402  0.06799686  0.62641882    -0.22700
C1793       C  0.16536295  0.13593385  0.61520855    -0.05700
H1794       H  0.21384132  0.12748668  0.61958630     0.15000
C1795       C  0.21306824  0.04284715  0.63583060    -0.15900
H1796       H  0.16570851  0.05143059  0.62853316     0.09300
H1797       H  0.08947960  0.12624676  0.66801017     0.07100
H1798       H  0.08833613  0.09544554  0.68061227     0.08300
H1799       H  0.06396759  0.10698388  0.66046539     0.07400
H1800       H  0.15152869  0.05860046  0.57653482     0.02300
H1801       H  0.15287965  0.08990358  0.56530473     0.02800
H1802       H  0.12862930  0.07025698  0.55432554     0.06300
H1803       H  0.17868264  0.15110057  0.61364419     0.05200
H1804       H  0.15289909  0.14001480  0.63201709    -0.00500
H1805       H  0.15470033  0.13520945  0.59642434     0.00900
H1806       H  0.20450646  0.03571941  0.65428177     0.04600
H1807       H  0.23289289  0.04398007  0.63970413     0.06500
H1808       H  0.20986371  0.02966875  0.61943181     0.07400
C1809       C  0.01945296  0.91010106  0.61058053    -0.22200
C1810       C  0.99691642  0.92202948  0.61148913     0.09800
C1811       C  0.97521689  0.90827177  0.61179185     0.10200
C1812       C  0.97661867  0.88274539  0.61251558    -0.17100
C1813       C  0.99921455  0.87066811  0.61265212    -0.27500
C1814       C  0.02092059  0.88456185  0.61092103     0.18500
C1815       C  0.99660440  0.94898484  0.61196198     0.12500
C1816       C  0.95064416  0.92051253  0.61093878    -0.11900
H1817       H  0.95995904  0.87215365  0.61323143     0.12800
C1818       C  0.04558024  0.87274417  0.60818625    -0.22700
H1819       H  0.03597942  0.92089634  0.60963970     0.08400
C1820       C  0.99507690  0.96199497  0.63614953     0.04700
C1821       C  0.99527564  0.98755190  0.63563822    -0.20000
C1822       C  0.99749013  0.00027716  0.61155387    -0.12200
C1823       C  0.99929897  0.98722369  0.58736378     0.13400
C1824       C  0.99877003  0.96168680  0.58788552    -0.22700
C1825       C  0.99377001  0.94891329  0.66247934    -0.05700
H1826       H  0.99391239  0.99771013  0.65408394     0.15000
C1827       C  0.00176423  0.99965060  0.56074797    -0.15900
H1828       H  0.00015780  0.95158739  0.56939463     0.09300
H1829       H  0.05043771  0.86292087  0.62668373     0.07100
H1830       H  0.06012499  0.88641966  0.60454134     0.08300
H1831       H  0.04546311  0.85989182  0.59111575     0.07400
H1832       H  0.94911180  0.93160249  0.59253069     0.02300
H1833       H  0.94831844  0.93256748  0.62846341     0.02800
H1834       H  0.93554392  0.90703450  0.61098946     0.06300
H1835       H  0.99293629  0.96187032  0.67943816     0.05200
H1836       H  0.01019003  0.93733288  0.66505592    -0.00500
H1837       H  0.97729879  0.93723419  0.66326704     0.00900
H1838       H  0.01895449  0.99372668  0.55106454     0.04600
H1839       H  0.00213840  0.01978684  0.56226465     0.06500
H1840       H  0.98616092  0.99448920  0.54783344     0.07400
C1841       C  0.81962051  0.06169201  0.62365098    -0.22200
C1842       C  0.83024784  0.08480086  0.62179045     0.09800
C1843       C  0.81531867  0.10561909  0.61982380     0.10200
C1844       C  0.78993655  0.10278716  0.61988808    -0.17100
C1845       C  0.77912881  0.07965092  0.62193936    -0.27500
C1846       C  0.79423505  0.05877629  0.62388559     0.18500
C1847       C  0.85709038  0.08659357  0.62090116     0.12500
C1848       C  0.82612978  0.13079989  0.61785967    -0.11900
H1849       H  0.77844233  0.11878351  0.61839945     0.12800
C1850       C  0.78402912  0.03330965  0.62502920    -0.22700
H1851       H  0.83134285  0.04582052  0.62467731     0.08400
C1852       C  0.87159129  0.08209603  0.64361470     0.04700
C1853       C  0.89700704  0.08365519  0.64145588    -0.20000
C1854       C  0.90806290  0.08935810  0.61709731    -0.12200
C1855       C  0.89356583  0.09364679  0.59434023     0.13400
C1856       C  0.86820055  0.09222230  0.59656162    -0.22700
C1857       C  0.86030541  0.07575913  0.67005920    -0.05700
H1858       H  0.90836922  0.08015750  0.65870573     0.15000
C1859       C  0.90425603  0.09928032  0.56740186    -0.15900
H1860       H  0.85697480  0.09524195  0.57908912     0.09300
H1861       H  0.77476937  0.03025494  0.64431078     0.07100
H1862       H  0.79860843  0.01934705  0.62344554     0.08300
H1863       H  0.77110861  0.03034894  0.60831651     0.07400
H1864       H  0.83711086  0.13245201  0.59941667     0.02300
H1865       H  0.83796295  0.13432487  0.63538630     0.02800
H1866       H  0.81180253  0.14508028  0.61726324     0.06300
H1867       H  0.87432333  0.07349946  0.68583589     0.05200
H1868       H  0.85009097  0.05838025  0.66845919    -0.00500
H1869       H  0.84766695  0.09047866  0.67629811     0.00900
H1870       H  0.89847317  0.08510868  0.55294014     0.04600
H1871       H  0.92444537  0.09986412  0.56745673     0.06500
H1872       H  0.89751413  0.11727310  0.56050190     0.07400
C1873       C  0.97271160  0.26937919  0.62295370    -0.22200
C1874       C  0.99511690  0.25789904  0.61849751     0.09800
C1875       C  0.01631911  0.27203163  0.61512027     0.10200
C1876       C  0.01464918  0.29750014  0.61638045    -0.17100
C1877       C  0.99224735  0.30919381  0.62094106    -0.27500
C1878       C  0.97092521  0.29488115  0.62416787     0.18500
C1879       C  0.99588195  0.23099704  0.61708813     0.12500
C1880       C  0.04064689  0.26019225  0.61008785    -0.11900
H1881       H  0.03096957  0.30836759  0.61378318     0.12800
C1882       C  0.94608026  0.30614191  0.62762384    -0.22700
H1883       H  0.95652013  0.25826196  0.62529752     0.08400
C1884       C  0.99823941  0.21667228  0.64024838     0.04700
C1885       C  0.99887401  0.19121977  0.63791931    -0.20000
C1886       C  0.99686645  0.17985945  0.61299006    -0.12200
C1887       C  0.99442481  0.19424293  0.58978810     0.13400
C1888       C  0.99405088  0.21969629  0.59214756    -0.22700
C1889       C  0.00002247  0.22828240  0.66734469    -0.05700
H1890       H  0.00068049  0.18005749  0.65561223     0.15000
C1891       C  0.99209814  0.18335521  0.56236635    -0.15900
H1892       H  0.99220624  0.23082946  0.57442846     0.09300
H1893       H  0.93141118  0.29220218  0.62702901     0.07100
H1894       H  0.94252712  0.31939046  0.61137933     0.08300
H1895       H  0.94483389  0.31531011  0.64720324     0.07400
H1896       H  0.03984146  0.24937332  0.59143359     0.02300
H1897       H  0.04534843  0.24796033  0.62692313     0.02800
H1898       H  0.05542737  0.27388540  0.60800634     0.06300
H1899       H  0.00185758  0.21444136  0.68334748     0.05200
H1900       H  0.98335692  0.23914544  0.67133710    -0.00500
H1901       H  0.01618395  0.24042893  0.66816054     0.00900
H1902       H  0.97463016  0.18927014  0.55325265     0.04600
H1903       H  0.99240724  0.16317083  0.56246629     0.06500
H1904       H  0.00739700  0.18979216  0.54973521     0.07400
C1905       C  0.87180477  0.08886019  0.89527773    -0.22200
C1906       C  0.85910172  0.08063226  0.87276766     0.09800
C1907       C  0.87208645  0.07487696  0.84935203     0.10200
C1908       C  0.89760678  0.07689278  0.84919930    -0.17100
C1909       C  0.91036093  0.08502231  0.87173881    -0.27500
C1910       C  0.89729494  0.09121684  0.89505543     0.18500
C1911       C  0.83209395  0.07951808  0.87369130     0.12500
C1912       C  0.85896927  0.06705994  0.82441733    -0.11900
H1913       H  0.90771565  0.07222924  0.83138192     0.12800
C1914       C  0.90963763  0.10026302  0.91998118    -0.22700
H1915       H  0.86172891  0.09359913  0.91310255     0.08400
C1916       C  0.81949785  0.05790912  0.88023877     0.04700
C1917       C  0.79385504  0.05799440  0.88066982    -0.20000
C1918       C  0.78059174  0.07931857  0.87523610    -0.12200
C1919       C  0.79332411  0.10087594  0.86841717     0.13400
C1920       C  0.81891188  0.10067162  0.86779518    -0.22700
C1921       C  0.83311594  0.03492614  0.88710828    -0.05700
H1922       H  0.78410416  0.04145893  0.88573014     0.15000
C1923       C  0.78013229  0.12388690  0.86067077    -0.15900
H1924       H  0.82877055  0.11710242  0.86256213     0.09300
H1925       H  0.90543619  0.08778378  0.93675348     0.07100
H1926       H  0.90273512  0.11873558  0.92489124     0.08300
H1927       H  0.92972378  0.10138151  0.91806009     0.07400
H1928       H  0.84624809  0.08164516  0.81798308     0.02300
H1929       H  0.84846390  0.05015082  0.82818724     0.02800
H1930       H  0.87185914  0.06345140  0.80784248     0.06300
H1931       H  0.82049762  0.01973042  0.89191617     0.05200
H1932       H  0.84494848  0.03819374  0.90469202    -0.00500
H1933       H  0.84462822  0.02918505  0.87008995     0.00900
H1934       H  0.76996812  0.13127156  0.87791461     0.04600
H1935       H  0.76731778  0.12006132  0.84406625     0.06500
H1936       H  0.79296740  0.13827177  0.85394605     0.07400
C1937       C  0.01715902  0.26934465  0.86023662    -0.22200
C1938       C  0.99545080  0.25593160  0.86177334     0.09800
C1939       C  0.97298825  0.26847133  0.86284001     0.10200
C1940       C  0.97280791  0.29410515  0.86285817    -0.17100
C1941       C  0.99455718  0.30759451  0.86177575    -0.27500
C1942       C  0.01701537  0.29494976  0.85961645     0.18500
C1943       C  0.99663888  0.22879630  0.86205818     0.12500
C1944       C  0.94919070  0.25480345  0.86369448    -0.11900
H1945       H  0.95557933  0.30368517  0.86419853     0.12800
C1946       C  0.04107735  0.30761796  0.85531072    -0.22700
H1947       H  0.03437929  0.25971841  0.85902122     0.08400
C1948       C  0.00243199  0.21524944  0.83897346     0.04700
C1949       C  0.00306866  0.18964598  0.84026275    -0.20000
C1950       C  0.99784925  0.17725302  0.86402868    -0.12200
C1951       C  0.99207246  0.19083221  0.88713622     0.13400
C1952       C  0.99166595  0.21639438  0.88586373    -0.22700
C1953       C  0.00738659  0.22776738  0.81285264    -0.05700
H1954       H  0.00745051  0.17918350  0.82260369     0.15000
C1955       C  0.98630764  0.17897345  0.91344514    -0.15900
H1956       H  0.98734802  0.22677043  0.90361298     0.09300
H1957       H  0.04997274  0.30008228  0.83724374     0.07100
H1958       H  0.05314634  0.30443117  0.87271466     0.08300
H1959       H  0.03928100  0.32745936  0.85204957     0.07400
H1960       H  0.94823114  0.24355842  0.88201316     0.02300
H1961       H  0.94768437  0.24278347  0.84598729     0.02800
H1962       H  0.93331972  0.26735815  0.86370704     0.06300
H1963       H  0.01090174  0.21446379  0.79664408     0.05200
H1964       H  0.02364851  0.23966515  0.81467469    -0.00500
H1965       H  0.99138924  0.23898346  0.80709333     0.00900
H1966       H  0.99941343  0.18542630  0.92875504     0.04600
H1967       H  0.96757296  0.18407811  0.91965164     0.06500
H1968       H  0.98737158  0.15883021  0.91277198     0.07400
C1969       C  0.12920642  0.08973311  0.84331219    -0.22200
C1970       C  0.14142269  0.09014999  0.86784391     0.09800
C1971       C  0.12785434  0.08980732  0.89171255     0.10200
C1972       C  0.10231194  0.08924564  0.89051652    -0.17100
C1973       C  0.09005867  0.08904325  0.86600994    -0.27500
C1974       C  0.10364327  0.08909224  0.84208080     0.18500
C1975       C  0.16844113  0.09085493  0.86830776     0.12500
C1976       C  0.14036081  0.08969812  0.91842724    -0.11900
H1977       H  0.09178019  0.08897450  0.90876297     0.12800
C1978       C  0.09175993  0.08832896  0.81503639    -0.22700
H1979       H  0.13969257  0.08988485  0.82502641     0.08400
C1980       C  0.18249755  0.06968199  0.86415819     0.04700
C1981       C  0.20794977  0.07092302  0.86675347    -0.20000
C1982       C  0.21967861  0.09288768  0.87318157    -0.12200
C1983       C  0.20550457  0.11410726  0.87744108     0.13400
C1984       C  0.18009232  0.11283661  0.87457952    -0.22700
C1985       C  0.17061733  0.04576518  0.85726043    -0.05700
H1986       H  0.21880424  0.05471034  0.86342003     0.15000
C1987       C  0.21623415  0.13807396  0.88627109    -0.15900
H1988       H  0.16916945  0.12899189  0.87804037     0.09300
H1989       H  0.09792644  0.07181073  0.80420773     0.07100
H1990       H  0.09713703  0.10470877  0.80348677     0.08300
H1991       H  0.07158660  0.08785772  0.81603317     0.07400
H1992       H  0.15128771  0.10656089  0.92088603     0.02300
H1993       H  0.15256428  0.07362108  0.91991229     0.02800
H1994       H  0.12705484  0.08881711  0.93504958     0.06300
H1995       H  0.18424002  0.03093680  0.85507805     0.05200
H1996       H  0.16061494  0.04747961  0.83813622    -0.00500
H1997       H  0.15764630  0.04050123  0.87320949     0.00900
H1998       H  0.21297261  0.15207593  0.87072601     0.04600
H1999       H  0.23602470  0.13714149  0.89037650     0.06500
H2000       H  0.20727061  0.14399474  0.90500342     0.07400
C2001       C  0.02561776  0.90712579  0.87488083    -0.22200
C2002       C  0.00317030  0.91925585  0.87411420     0.09800
C2003       C  0.98135054  0.90568132  0.87366372     0.10200
C2004       C  0.98249241  0.88015871  0.87380203    -0.17100
C2005       C  0.00495103  0.86790012  0.87408485    -0.27500
C2006       C  0.02683265  0.88157801  0.87500810     0.18500
C2007       C  0.00295029  0.94622631  0.87386488     0.12500
C2008       C  0.95689253  0.91813823  0.87328104    -0.11900
H2009       H  0.96574015  0.86969555  0.87332787     0.12800
C2010       C  0.05143316  0.86953853  0.87731689    -0.22700
H2011       H  0.04225763  0.91776787  0.87545581     0.08400
C2012       C  0.00716799  0.95988364  0.89723080     0.04700
C2013       C  0.00664109  0.98542670  0.89597722    -0.20000
C2014       C  0.00204980  0.99749833  0.87187536    -0.12200
C2015       C  0.99799298  0.98378544  0.84845065     0.13400
C2016       C  0.99848175  0.95828671  0.84976808    -0.22700
C2017       C  0.01194042  0.94748267  0.92346745    -0.05700
H2018       H  0.00978963  0.99607631  0.91382471     0.15000
C2019       C  0.99328013  0.99545030  0.82177875    -0.15900
H2020       H  0.99539362  0.94770191  0.83184879     0.09300
H2021       H  0.05162824  0.85701359  0.89467018     0.07100
H2022       H  0.06621450  0.88311641  0.88020806     0.08300
H2023       H  0.05570080  0.85930761  0.85891286     0.07400
H2024       H  0.95511878  0.92936085  0.85500756     0.02300
H2025       H  0.95508535  0.93004521  0.89104033     0.02800
H2026       H  0.94166364  0.90480633  0.87350537     0.06300
H2027       H  0.01440304  0.96085630  0.93984408     0.05200
H2028       H  0.02876624  0.93633584  0.92212737    -0.00500
H2029       H  0.99632636  0.93550667  0.92860352     0.00900
H2030       H  0.00757109  0.98965441  0.80748018     0.04600
H2031       H  0.99335162  0.01562282  0.82255470     0.06500
H2032       H  0.97522180  0.98951014  0.81418088     0.07400
C2033       C  0.62630723  0.58864891  0.92163262    -0.22200
C2034       C  0.63686177  0.58628165  0.89636104     0.09800
C2035       C  0.62190125  0.58354840  0.87373012     0.10200
C2036       C  0.59654363  0.58398449  0.87675005    -0.17100
C2037       C  0.58590638  0.58685956  0.90191404    -0.27500
C2038       C  0.60089395  0.58885152  0.92472944     0.18500
C2039       C  0.66361059  0.58763057  0.89362479     0.12500
C2040       C  0.63276569  0.58024154  0.84643032    -0.11900
H2041       H  0.58488769  0.58210900  0.85943079     0.12800
C2042       C  0.59066866  0.59111775  0.95244840    -0.22700
H2043       H  0.63795553  0.59055396  0.93895885     0.08400
C2044       C  0.67535819  0.61008155  0.88914913     0.04700
C2045       C  0.70052611  0.61039574  0.88442824    -0.20000
C2046       C  0.71417406  0.58876784  0.88420203    -0.12200
C2047       C  0.70246576  0.56633735  0.88985691     0.13400
C2048       C  0.67720510  0.56606762  0.89410502    -0.22700
C2049       C  0.66123494  0.63362013  0.88911750    -0.05700
H2050       H  0.70956248  0.62758594  0.88049822     0.15000
C2051       C  0.71591263  0.54252628  0.89269928    -0.15900
H2052       H  0.66802863  0.54892232  0.89791986     0.09300
H2053       H  0.59712536  0.60836068  0.96160523     0.07100
H2054       H  0.59707697  0.57557366  0.96474303     0.08300
H2055       H  0.57046972  0.59116326  0.95284180     0.07400
H2056       H  0.64419722  0.56355878  0.84611041     0.02300
H2057       H  0.64423685  0.59621698  0.84129668     0.02800
H2058       H  0.61846857  0.57834113  0.83090118     0.06300
H2059       H  0.67320503  0.64953897  0.88522010     0.05200
H2060       H  0.65241504  0.63627728  0.90878966    -0.00500
H2061       H  0.64697654  0.63311201  0.87343527     0.00900
H2062       H  0.71181047  0.53446252  0.91247141     0.04600
H2063       H  0.73594149  0.54441906  0.89153887     0.06500
H2064       H  0.70979163  0.52969387  0.87697052     0.07400
C2065       C  0.47398600  0.40771678  0.88763400    -0.22200
C2066       C  0.49631848  0.41884016  0.89347862     0.09800
C2067       C  0.51726380  0.40434826  0.89701869     0.10200
C2068       C  0.51547622  0.37897010  0.89405352    -0.17100
C2069       C  0.49319850  0.36763737  0.88768724    -0.27500
C2070       C  0.47206579  0.38231155  0.88474809     0.18500
C2071       C  0.49724878  0.44575613  0.89567690     0.12500
C2072       C  0.54142822  0.41566916  0.90412141    -0.11900
H2073       H  0.53167892  0.36792104  0.89656037     0.12800
C2074       C  0.44723952  0.37153379  0.87965993    -0.22700
H2075       H  0.45795990  0.41906577  0.88526294     0.08400
C2076       C  0.50248680  0.46048453  0.87337820     0.04700
C2077       C  0.50261212  0.48591920  0.87621133    -0.20000
C2078       C  0.49719468  0.49691950  0.90071229    -0.12200
C2079       C  0.49177375  0.48216188  0.92301669     0.13400
C2080       C  0.49197565  0.45671190  0.92022312    -0.22700
C2081       C  0.50748808  0.44934937  0.84652530    -0.05700
H2082       H  0.50660472  0.49735299  0.85917044     0.15000
C2083       C  0.48561415  0.49265922  0.94990177    -0.15900
H2084       H  0.48778908  0.44531976  0.93724902     0.09300
H2085       H  0.43265482  0.38550551  0.88108656     0.07100
H2086       H  0.44324084  0.35717669  0.89459609     0.08300
H2087       H  0.44633517  0.36388904  0.85929633     0.07400
H2088       H  0.53979263  0.42564400  0.92326555     0.02300
H2089       H  0.54712090  0.42859632  0.88833100     0.02800
H2090       H  0.55595331  0.40172496  0.90634127     0.06300
H2091       H  0.51109085  0.46347262  0.83119406     0.05200
H2092       H  0.49147541  0.43850448  0.84001024    -0.00500
H2093       H  0.52366117  0.43726889  0.84767073     0.00900
H2094       H  0.46705951  0.48666995  0.95580800     0.04600
H2095       H  0.49892538  0.48600045  0.96488810     0.06500
H2096       H  0.48598512  0.51284158  0.95022120     0.07400
C2097       C  0.36609080  0.57984017  0.91453327    -0.22200
C2098       C  0.35547546  0.58479409  0.88971031     0.09800
C2099       C  0.37055270  0.59004672  0.86768156     0.10200
C2100       C  0.39593872  0.59066042  0.87108514    -0.17100
C2101       C  0.40656322  0.58602738  0.89598015    -0.27500
C2102       C  0.39148822  0.58034447  0.91795769     0.18500
C2103       C  0.32852212  0.58575294  0.88747111     0.12500
C2104       C  0.35983440  0.59473573  0.84054752    -0.11900
H2105       H  0.40762184  0.59469557  0.85426082     0.12800
C2106       C  0.40157303  0.57497619  0.94525166    -0.22700
H2107       H  0.35445533  0.57587144  0.93142310     0.08400
C2108       C  0.31417405  0.56449364  0.88566836     0.04700
C2109       C  0.28874891  0.56665360  0.88299363    -0.20000
C2110       C  0.27737235  0.58959264  0.88182728    -0.12200
C2111       C  0.29184013  0.61085806  0.88421973     0.13400
C2112       C  0.31720913  0.60861102  0.88700079    -0.22700
C2113       C  0.32572894  0.53961625  0.88621449    -0.05700
H2114       H  0.27770440  0.55033936  0.88147515     0.15000
C2115       C  0.28073290  0.63594425  0.88502438    -0.15900
H2116       H  0.32839318  0.62481542  0.88878289     0.09300
H2117       H  0.39621559  0.55627513  0.95129704     0.07100
H2118       H  0.39399019  0.58817722  0.95979998     0.08300
H2119       H  0.42171522  0.57623146  0.94619268     0.07400
H2120       H  0.34785551  0.61100762  0.84119699     0.02300
H2121       H  0.34898868  0.57869458  0.83412652     0.02800
H2122       H  0.37420671  0.59805460  0.82541718     0.06300
H2123       H  0.31193157  0.52491753  0.88423276     0.05200
H2124       H  0.33551326  0.53693375  0.90534029    -0.00500
H2125       H  0.33885779  0.53788299  0.86951191     0.00900
H2126       H  0.26660199  0.63680265  0.90080547     0.04600
H2127       H  0.27256931  0.64050037  0.86548715     0.06500
H2128       H  0.29458938  0.65014153  0.88943666     0.07400
C2129       C  0.46929368  0.76651820  0.88812950    -0.22200
C2130       C  0.49201681  0.75488975  0.88872169     0.09800
C2131       C  0.51345774  0.76878163  0.88588950     0.10200
C2132       C  0.51172588  0.79409491  0.88257383    -0.17100
C2133       C  0.48904052  0.80595689  0.88223888    -0.27500
C2134       C  0.46746852  0.79191325  0.88495186     0.18500
C2135       C  0.49299132  0.72803362  0.89166468     0.12500
C2136       C  0.53816892  0.75685257  0.88644480    -0.11900
H2137       H  0.52825727  0.80473909  0.88053396     0.12800
C2138       C  0.44247464  0.80322963  0.88342959    -0.22700
H2139       H  0.45292317  0.75560318  0.89007434     0.08400
C2140       C  0.49329863  0.71680478  0.91693464     0.04700
C2141       C  0.49458796  0.69128341  0.91862919    -0.20000
C2142       C  0.49542699  0.67681535  0.89560389    -0.12200
C2143       C  0.49520496  0.68813923  0.87028917     0.13400
C2144       C  0.49398296  0.71362325  0.86866960    -0.22700
C2145       C  0.49222712  0.73178370  0.94202196    -0.05700
H2146       H  0.49471165  0.68251354  0.93796034     0.15000
C2147       C  0.49622660  0.67392622  0.84464889    -0.15900
H2148       H  0.49383255  0.72235174  0.84930359     0.09300
H2149       H  0.43921531  0.81496968  0.90098257     0.07100
H2150       H  0.42789646  0.78918542  0.88329428     0.08300
H2151       H  0.44072815  0.81409478  0.86488519     0.07400
H2152       H  0.53958701  0.74343564  0.86998313     0.02300
H2153       H  0.54082578  0.74734003  0.90572947     0.02800
H2154       H  0.55308490  0.77035964  0.88408367     0.06300
H2155       H  0.49272950  0.72016522  0.96011593     0.05200
H2156       H  0.47508594  0.74252080  0.94238335    -0.00500
H2157       H  0.50800436  0.74442510  0.94279103     0.00900
H2158       H  0.47969995  0.67785624  0.83262246     0.04600
H2159       H  0.49718657  0.65397111  0.84778080     0.06500
H2160       H  0.51258717  0.67949771  0.83316277     0.07400
C2161       C  0.36541056  0.59007618  0.63104069    -0.22200
C2162       C  0.35315603  0.59309299  0.60679130     0.09800
C2163       C  0.36652316  0.59469919  0.58288087     0.10200
C2164       C  0.39199186  0.59270038  0.58371923    -0.17100
C2165       C  0.40426112  0.58932693  0.60794496    -0.27500
C2166       C  0.39087085  0.58828460  0.63195739     0.18500
C2167       C  0.32623746  0.59370986  0.60682748     0.12500
C2168       C  0.35388201  0.59841341  0.55656431    -0.11900
H2169       H  0.40244775  0.59390648  0.56546520     0.12800
C2170       C  0.40285488  0.58558732  0.65879916    -0.22700
H2171       H  0.35500851  0.58903345  0.64935343     0.08400
C2172       C  0.31251572  0.57202200  0.60736748     0.04700
C2173       C  0.28700894  0.57335513  0.60725566    -0.20000
C2174       C  0.27491647  0.59588957  0.60642652    -0.12200
C2175       C  0.28880295  0.61764886  0.60506928     0.13400
C2176       C  0.31432422  0.61623619  0.60582011    -0.22700
C2177       C  0.32484547  0.54750578  0.60788585    -0.05700
H2178       H  0.27643516  0.55669351  0.60813603     0.15000
C2179       C  0.27764184  0.64252744  0.60142423    -0.15900
H2180       H  0.32505763  0.63280790  0.60493614     0.09300
H2181       H  0.39596606  0.56887062  0.66869859     0.07100
H2182       H  0.39831714  0.60160915  0.67134670     0.08300
H2183       H  0.42297673  0.58422643  0.65759129     0.07400
H2184       H  0.34367134  0.61586598  0.55684526     0.02300
H2185       H  0.34097446  0.58320877  0.55284954     0.02800
H2186       H  0.36705453  0.59907627  0.53980076     0.06300
H2187       H  0.31142273  0.53236021  0.60797274     0.05200
H2188       H  0.33627897  0.54587882  0.62604075    -0.00500
H2189       H  0.33656342  0.54544821  0.59001443     0.00900
H2190       H  0.28132038  0.65385325  0.61929403     0.04600
H2191       H  0.25777510  0.64204661  0.59777313     0.06500
H2192       H  0.28594332  0.65149071  0.58380425     0.07400
C2193       C  0.50324601  0.71416169  0.62962977    -0.22200
C2194       C  0.49842355  0.72760281  0.60651177     0.09800
C2195       C  0.49258556  0.71533604  0.58264022     0.10200
C2196       C  0.49164684  0.68976343  0.58246628    -0.17100
C2197       C  0.49647168  0.67631913  0.60563342    -0.27500
C2198       C  0.50230553  0.68864474  0.62952428     0.18500
C2199       C  0.49926392  0.75455005  0.60792799     0.12500
C2200       C  0.48716057  0.72927223  0.55750661    -0.11900
H2201       H  0.48713912  0.68017759  0.56424841     0.12800
C2202       C  0.50743125  0.67546179  0.65525222    -0.22700
H2203       H  0.50764264  0.72368221  0.64793203     0.08400
C2204       C  0.47919203  0.76811189  0.61730852     0.04700
C2205       C  0.48077160  0.79361495  0.61832925    -0.20000
C2206       C  0.50212269  0.80579234  0.61065466    -0.12200
C2207       C  0.52222332  0.79219608  0.60122906     0.13400
C2208       C  0.52052870  0.76667341  0.59994816    -0.22700
C2209       C  0.45611868  0.75564015  0.62613645    -0.05700
H2210       H  0.46536941  0.80412147  0.62544534     0.15000
C2211       C  0.54511504  0.80456561  0.59170631    -0.15900
H2212       H  0.53580858  0.75608885  0.59266138     0.09300
H2213       H  0.49413369  0.68137613  0.67059681     0.07100
H2214       H  0.52611657  0.67997751  0.66217734     0.08300
H2215       H  0.50611572  0.65538972  0.65342236     0.07400
H2216       H  0.50325851  0.74034269  0.55178887     0.02300
H2217       H  0.47134522  0.74152234  0.56077980     0.02800
H2218       H  0.48273037  0.71690555  0.54068041     0.06300
H2219       H  0.44211266  0.76894392  0.63271142     0.05200
H2220       H  0.46009974  0.74327616  0.64307556    -0.00500
H2221       H  0.44842665  0.74487188  0.60940945     0.00900
H2222       H  0.55374890  0.81468424  0.60833695     0.04600
H2223       H  0.54063365  0.81743356  0.57536709     0.06500
H2224       H  0.55862322  0.79123565  0.58403583     0.07400
C2225       C  0.62212295  0.59180404  0.62798851    -0.22200
C2226       C  0.63463550  0.58564001  0.60461967     0.09800
C2227       C  0.62136612  0.57898715  0.58162881     0.10200
C2228       C  0.59580843  0.57851134  0.58263365    -0.17100
C2229       C  0.58331683  0.58484412  0.60596801    -0.27500
C2230       C  0.59659617  0.59171435  0.62890603     0.18500
C2231       C  0.66164033  0.58624796  0.60477711     0.12500
C2232       C  0.63411851  0.57300947  0.55589991    -0.11900
H2233       H  0.58545574  0.57352692  0.56506581     0.12800
C2234       C  0.58444546  0.59912272  0.65456142    -0.22700
H2235       H  0.63237717  0.59684972  0.64561417     0.08400
C2236       C  0.67462135  0.60844126  0.60497010     0.04700
C2237       C  0.70019434  0.60800178  0.60570782    -0.20000
C2238       C  0.71307960  0.58589621  0.60616165    -0.12200
C2239       C  0.69999888  0.56366870  0.60484161     0.13400
C2240       C  0.67444286  0.56417536  0.60475928    -0.22700
C2241       C  0.66151566  0.63254898  0.60415950    -0.05700
H2242       H  0.71018576  0.62502675  0.60641788     0.15000
C2243       C  0.71214830  0.53915438  0.60222219    -0.15900
H2244       H  0.66437928  0.54717615  0.60422600     0.09300
H2245       H  0.58973297  0.61809894  0.65959442     0.07100
H2246       H  0.59049939  0.58684847  0.67083957     0.08300
H2247       H  0.56428432  0.59829748  0.65357234     0.07400
H2248       H  0.64592745  0.55679144  0.55856556     0.02300
H2249       H  0.64546871  0.58872809  0.54959413     0.02800
H2250       H  0.62094509  0.56895739  0.53968666     0.06300
H2251       H  0.67446233  0.64809809  0.60367821     0.05200
H2252       H  0.64988833  0.63462374  0.62207413    -0.00500
H2253       H  0.64992479  0.63350770  0.58605601     0.00900
H2254       H  0.70818125  0.52797822  0.62011917     0.04600
H2255       H  0.73212028  0.54030817  0.59954806     0.06500
H2256       H  0.70484881  0.52964398  0.58439767     0.07400
C2257       C  0.51160439  0.40529812  0.61782395    -0.22200
C2258       C  0.49077580  0.41845373  0.61048149     0.09800
C2259       C  0.46942710  0.40587738  0.60294233     0.10200
C2260       C  0.46940716  0.38030167  0.60276120    -0.17100
C2261       C  0.49038706  0.36707934  0.60952992    -0.27500
C2262       C  0.51168809  0.37970405  0.61746161     0.18500
C2263       C  0.49170498  0.44543529  0.61044928     0.12500
C2264       C  0.44670281  0.41951313  0.59513344    -0.11900
H2265       H  0.45305330  0.37055950  0.59696352     0.12800
C2266       C  0.53422021  0.36632350  0.62646603    -0.22700
H2267       H  0.52783926  0.41513753  0.62381745     0.08400
C2268       C  0.48715029  0.45910303  0.63371063     0.04700
C2269       C  0.48713552  0.48466686  0.63232501    -0.20000
C2270       C  0.49183858  0.49677256  0.60826004    -0.12200
C2271       C  0.49676611  0.48301922  0.58505483     0.13400
C2272       C  0.49660099  0.45750167  0.58646573    -0.22700
C2273       C  0.48228988  0.44667125  0.65989380    -0.05700
H2274       H  0.48363330  0.49530471  0.65009458     0.15000
C2275       C  0.50215738  0.49464470  0.55853247    -0.15900
H2276       H  0.50015141  0.44690242  0.56866725     0.09300
H2277       H  0.52959199  0.35383540  0.64310007     0.07100
H2278       H  0.54855002  0.37905512  0.63358282     0.08300
H2279       H  0.54200893  0.35572000  0.60974037     0.07400
H2280       H  0.45047249  0.43114684  0.57753673     0.02300
H2281       H  0.44064135  0.43119021  0.61191603     0.02800
H2282       H  0.43156656  0.40693643  0.58995055     0.06300
H2283       H  0.47896543  0.46002834  0.67609766     0.05200
H2284       H  0.49824778  0.43536717  0.66556173    -0.00500
H2285       H  0.46597385  0.43481674  0.65811969     0.00900
H2286       H  0.52061163  0.48909668  0.55180327     0.04600
H2287       H  0.50156165  0.51481153  0.55916666     0.06500
H2288       H  0.48854039  0.48843077  0.54363868     0.07400
loop_ 
_geom_bond_atom_site_label_1 
_geom_bond_atom_site_label_2 
_geom_bond_distance 
_geom_bond_site_symmetry_2 
_ccdc_geom_bond_type 
N1            N2   1.322       .  A
N1            C5   1.345       .  A
N1           Cu9   2.072       .  S
N2            C3   1.345       .  A
N2           Cu8   2.071       .  S
C3            C4   1.382       .  A
C3            H6   1.082       .  S
C4            C5   1.382       .  A
C4          C545   1.466       .  S
C5            H7   1.082       .  S
Cu8          N11   2.072       .  S
Cu9          N19   2.073       .  S
Cu10         N12   2.080       .  S
Cu10         N18   2.080       .  S
N11          N12   1.323       .  A
N11          C15   1.344       .  A
N12          C13   1.347       .  A
C13          C14   1.384       .  A
C13          H16   1.082       .  S
C14          C15   1.381       .  A
C14         C602   1.469       .  S
C15          H17   1.082       .  S
N18          N19   1.323       .  A
N18          C22   1.346       .  A
N19          C20   1.344       .  A
C20          C21   1.382       .  A
C20          H23   1.081       .  S
C21          C22   1.383       .  A
C21        C1117   1.478       .  S
C22          H24   1.082       .  S
N25          C30   1.352       .  A
N25          C29   1.353       .  A
N25          H57   1.036       .  S
N26          C33   1.352       .  A
N26          C34   1.350       .  A
N27          C32   1.354       .  A
N27          C31   1.353       .  A
N27          H58   1.037       .  S
N28          C35   1.352       .  A
N28          C36   1.352       .  A
C29          C37   1.386       .  A
C29          C45   1.414       .  A
C30          C46   1.415       .  A
C30          C38   1.388       .  A
C31          C39   1.387       .  A
C31          C48   1.417       .  A
C32          C47   1.418       .  A
C32          C40   1.387       .  A
C33          C45   1.412       .  A
C33          C41   1.385       .  A
C34          C48   1.413       .  A
C34          C42   1.387       .  A
C35          C43   1.386       .  A
C35          C46   1.414       .  A
C36          C44   1.386       .  A
C36          C47   1.414       .  A
C37          C38   1.375       .  A
C37          H49   1.082       .  S
C38          H50   1.082       .  S
C39          C40   1.377       .  A
C39          H51   1.082       .  S
C40          H52   1.082       .  S
C41          C42   1.371       .  A
C41          H53   1.082       .  S
C42          H54   1.082       .  S
C43          C44   1.373       .  A
C43          H55   1.082       .  S
C44          H56   1.082       .  S
C45        C1053   1.486       .  S
C46        C1085   1.485       .  S
C47        C1126   1.489       .  S
C48        C1021   1.484       .  S
N59          N60   1.322       .  A
N59          C63   1.346       .  A
N59         Cu67   2.078       .  S
N60          C61   1.344       .  A
N60         Cu66   2.067       .  S
C61          C62   1.381       .  A
C61          H64   1.082       .  S
C62          C63   1.383       .  A
C62         C618   1.466       .  S
C63          H65   1.082       .  S
Cu66         N69   2.067       .  S
Cu67         N77   2.078       .  S
Cu68         N70   2.068       .  S
Cu68         N76   2.069       .  S
N69          N70   1.322       .  A
N69          C73   1.344       .  A
N70          C71   1.344       .  A
C71          C72   1.380       .  A
C71          H74   1.082       .  S
C72          C73   1.381       .  A
C72         C562   1.462       .  S
C73          H75   1.082       .  S
N76          N77   1.322       .  A
N76          C80   1.345       .  A
N77          C78   1.345       .  A
C78          C79   1.385       .  A
C78          H81   1.082       .  S
C79          C80   1.383       .  A
C79        C1094   1.480       .  S
C80          H82   1.082       .  S
N83          N84   1.322       .  A
N83          C87   1.345       .  A
N83         Cu91   2.075       .  S
N84          C85   1.346       .  A
N84         Cu90   2.075       .  S
C85          C86   1.383       .  A
C85          H88   1.082       .  S
C86          C87   1.383       .  A
C86         C573   1.469       .  S
C87          H89   1.082       .  S
Cu90         N93   2.075       .  S
Cu91        N101   2.076       .  S
Cu92         N94   2.084       .  S
Cu92        N100   2.084       .  S
N93          N94   1.323       .  A
N93          C97   1.345       .  A
N94          C95   1.347       .  A
C95          C96   1.384       .  A
C95          H98   1.082       .  S
C96          C97   1.382       .  A
C96         C630   1.470       .  S
C97          H99   1.082       .  S
N100        N101   1.323       .  A
N100        C104   1.347       .  A
N101        C102   1.345       .  A
C102        C103   1.382       .  A
C102        H105   1.082       .  S
C103        C104   1.385       .  A
C103       C1062   1.479       .  S
C104        H106   1.082       .  S
N107        N108   1.322       .  A
N107        C111   1.346       .  A
N107       Cu115   2.074       .  S
N108        C109   1.345       .  A
N108       Cu114   2.077       .  S
C109        C110   1.382       .  A
C109        H112   1.082       .  S
C110        C111   1.383       .  A
C110        C533   1.468       .  S
C111        H113   1.082       .  S
Cu114       N117   2.077       .  S
Cu115       N125   2.074       .  S
Cu116       N118   2.068       .  S
Cu116       N124   2.069       .  S
N117        N118   1.322       .  A
N117        C121   1.346       .  A
N118        C119   1.344       .  A
C119        C120   1.381       .  A
C119        H122   1.082       .  S
C120        C121   1.384       .  A
C120        C590   1.468       .  S
C121        H123   1.082       .  S
N124        N125   1.322       .  A
N124        C128   1.344       .  A
N125        C126   1.344       .  A
C126        C127   1.383       .  A
C126        H129   1.082       .  S
C127        C128   1.384       .  A
C127       C1030   1.478       .  S
C128        H130   1.082       .  S
N131        N132   1.324       .  A
N131        C135   1.348       .  A
N131       Cu139   2.085       .  S
N132        C133   1.345       .  A
N132       Cu138   2.085       .  S
C133        C134   1.383       .  A
C133        H136   1.082       .  S
C134        C135   1.383       .  A
C134        C632   1.471       .  S
C135        H137   1.082       .  S
Cu138       N141   2.084       .  S
Cu139       N149   2.085       .  S
Cu140       N142   2.063       .  S
Cu140       N148   2.064       .  S
N141        N142   1.322       .  A
N141        C145   1.348       .  A
N142        C143   1.343       .  A
C143        C144   1.380       .  A
C143        H146   1.082       .  S
C144        C145   1.386       .  A
C144        C575   1.468       .  S
C145        H147   1.082       .  S
N148        N149   1.321       .  A
N148        C152   1.344       .  A
N149        C150   1.346       .  A
C150        C151   1.389       .  A
C150        H153   1.082       .  S
C151        C152   1.384       .  A
C151        C989   1.486       .  S
C152        H154   1.080       .  S
N155        C160   1.355       .  A
N155        C159   1.353       .  A
N155        H187   1.036       .  S
N156        C163   1.353       .  A
N156        C164   1.353       .  A
N157        C162   1.353       .  A
N157        C161   1.355       .  A
N157        H188   1.034       .  S
N158        C165   1.352       .  A
N158        C166   1.351       .  A
C159        C167   1.387       .  A
C159        C175   1.417       .  A
C160        C176   1.417       .  A
C160        C168   1.387       .  A
C161        C169   1.387       .  A
C161        C178   1.419       .  A
C162        C177   1.419       .  A
C162        C170   1.388       .  A
C163        C175   1.417       .  A
C163        C171   1.386       .  A
C164        C178   1.417       .  A
C164        C172   1.387       .  A
C165        C173   1.386       .  A
C165        C176   1.413       .  A
C166        C174   1.387       .  A
C166        C177   1.415       .  A
C167        C168   1.374       .  A
C167        H179   1.082       .  S
C168        H180   1.082       .  S
C169        C170   1.376       .  A
C169        H181   1.082       .  S
C170        H182   1.082       .  S
C171        C172   1.372       .  A
C171        H183   1.082       .  S
C172        H184   1.082       .  S
C173        C174   1.371       .  A
C173        H185   1.082       .  S
C174        H186   1.082       .  S
C175        C957   1.489       .  S
C176        C934   1.489       .  S
C177        C893   1.484       .  S
C178        C998   1.491       .  S
N189        N190   1.324       .  A
N189        C193   1.349       .  A
N189       Cu197   2.087       .  S
N190        C191   1.344       .  A
N190       Cu196   2.079       .  S
C191        C192   1.382       .  A
C191        H194   1.082       .  S
C192        C193   1.385       .  A
C192        C588   1.472       .  S
C193        H195   1.082       .  S
Cu196       N199   2.078       .  S
Cu197       N207   2.088       .  S
Cu198       N200   2.075       .  S
Cu198       N206   2.075       .  S
N199        N200   1.322       .  A
N199        C203   1.347       .  A
N200        C201   1.345       .  A
C201        C202   1.382       .  A
C201        H204   1.082       .  S
C202        C203   1.384       .  A
C202        C531   1.470       .  S
C203        H205   1.082       .  S
N206        N207   1.323       .  A
N206        C210   1.345       .  A
N207        C208   1.347       .  A
C208        C209   1.388       .  A
C208        H211   1.080       .  S
C209        C210   1.384       .  A
C209        C966   1.486       .  S
C210        H212   1.082       .  S
N213        N214   1.324       .  A
N213        C217   1.347       .  A
N213       Cu221   2.084       .  S
N214        C215   1.347       .  A
N214       Cu220   2.084       .  S
C215        C216   1.384       .  A
C215        H218   1.082       .  S
C216        C217   1.384       .  A
C216        C604   1.472       .  S
C217        H219   1.082       .  S
Cu220       N223   2.084       .  S
Cu221       N231   2.084       .  S
Cu222       N224   2.076       .  S
Cu222       N230   2.076       .  S
N223        N224   1.323       .  A
N223        C227   1.347       .  A
N224        C225   1.346       .  A
C225        C226   1.382       .  A
C225        H228   1.082       .  S
C226        C227   1.384       .  A
C226        C547   1.470       .  S
C227        H229   1.082       .  S
N230        N231   1.321       .  A
N230        C234   1.345       .  A
N231        C232   1.347       .  A
C232        C233   1.390       .  A
C232        H235   1.079       .  S
C233        C234   1.387       .  A
C233        C925   1.491       .  S
C234        H236   1.082       .  S
N237        N238   1.323       .  A
N237        C241   1.347       .  A
N237       Cu245   2.079       .  S
N238        C239   1.344       .  A
N238       Cu244   2.076       .  S
C239        C240   1.381       .  A
C239        H242   1.082       .  S
C240        C241   1.383       .  A
C240        C616   1.468       .  S
C241        H243   1.082       .  S
Cu244       N247   2.075       .  S
Cu245       N255   2.078       .  S
Cu246       N248   2.064       .  S
Cu246       N254   2.064       .  S
N247        N248   1.321       .  A
N247        C251   1.346       .  A
N248        C249   1.343       .  A
C249        C250   1.381       .  A
C249        H252   1.082       .  S
C250        C251   1.384       .  A
C250        C560   1.466       .  S
C251        H253   1.082       .  S
N254        N255   1.323       .  A
N254        C258   1.343       .  A
N255        C256   1.346       .  A
C256        C257   1.385       .  A
C256        H259   1.082       .  S
C257        C258   1.380       .  A
C257        C902   1.476       .  S
C258        H260   1.082       .  S
N261        N262   1.322       .  A
N261        C265   1.343       .  A
N261       Cu269   2.067       .  S
N262        C263   1.346       .  A
N262       Cu268   2.075       .  S
C263        C264   1.383       .  A
C263        H266   1.082       .  S
C264        C265   1.380       .  A
C264        C589   1.464       .  S
C265        H267   1.082       .  S
Cu268       N271   2.075   1_455  S
Cu269       N279   2.067       .  S
Cu270       N272   2.069       .  S
Cu270       N278   2.069       .  S
N271        N272   1.323       .  A
N271        C275   1.345       .  A
N272        C273   1.344       .  A
C273        C274   1.380       .  A
C273        H276   1.082       .  S
C274        C275   1.382       .  A
C274        C561   1.464       .  S
C275        H277   1.082       .  S
N278        N279   1.321   1_655  A
N278        C282   1.344       .  A
N279        C280   1.344       .  A
C280        C281   1.384       .  A
C280        H283   1.080       .  S
C281        C282   1.385   1_455  A
C281        C861   1.480       .  S
C282        H284   1.082       .  S
N285        C290   1.354       .  A
N285        C289   1.354       .  A
N285        H317   1.043       .  S
N286        C293   1.353       .  A
N286        C294   1.353       .  A
N287        C292   1.352       .  A
N287        C291   1.352       .  A
N287        H318   1.043       .  S
N288        C295   1.352       .  A
N288        C296   1.352       .  A
C289        C297   1.387       .  A
C289        C305   1.420   1_455  A
C290        C306   1.419       .  A
C290        C298   1.388       .  A
C291        C299   1.388       .  A
C291        C308   1.418       .  A
C292        C307   1.416   1_655  A
C292        C300   1.387       .  A
C293        C305   1.418       .  A
C293        C301   1.386       .  A
C294        C308   1.418       .  A
C294        C302   1.386       .  A
C295        C303   1.387       .  A
C295        C306   1.415       .  A
C296        C304   1.386       .  A
C296        C307   1.415       .  A
C297        C298   1.376       .  A
C297        H309   1.082       .  S
C298        H310   1.082       .  S
C299        C300   1.375       .  A
C299        H311   1.083       .  S
C300        H312   1.083       .  S
C301        C302   1.374       .  A
C301        H313   1.082       .  S
C302        H314   1.082       .  S
C303        C304   1.372       .  A
C303        H315   1.082       .  S
C304        H316   1.082       .  S
C305        C806   1.495       .  S
C306        C829   1.489       .  S
C307        C870   1.487   1_545  S
C308        C765   1.491       .  S
N319        N320   1.322       .  A
N319        C323   1.344       .  A
N319       Cu327   2.071       .  S
N320        C321   1.347       .  A
N320       Cu326   2.077       .  S
C321        C322   1.384       .  A
C321        H324   1.082       .  S
C322        C323   1.381       .  A
C322        C601   1.468       .  S
C323        H325   1.082       .  S
Cu326       N329   2.077       .  S
Cu327       N337   2.071       .  S
Cu328       N330   2.076       .  S
Cu328       N336   2.076       .  S
N329        N330   1.323       .  A
N329        C333   1.346       .  A
N330        C331   1.345       .  A
C331        C332   1.382       .  A
C331        H334   1.082       .  S
C332        C333   1.382       .  A
C332        C574   1.467       .  S
C333        H335   1.082       .  S
N336        N337   1.322       .  A
N336        C340   1.346       .  A
N337        C338   1.344       .  A
C338        C339   1.383       .  A
C338        H341   1.082       .  S
C339        C340   1.385       .  A
C339        C838   1.479       .  S
C340        H342   1.082       .  S
N343        N344   1.323       .  A
N343        C347   1.346       .  A
N343       Cu351   2.083       .  S
N344        C345   1.345       .  A
N344       Cu350   2.066       .  S
C345        C346   1.380       .  A
C345        H348   1.082       .  S
C346        C347   1.383       .  A
C346        C617   1.466       .  S
C347        H349   1.082       .  S
Cu350       N353   2.065   1_655  S
Cu351       N361   2.084       .  S
Cu352       N354   2.085       .  S
Cu352       N360   2.086   1_455  S
N353        N354   1.322       .  A
N353        C357   1.345       .  A
N354        C355   1.347       .  A
C355        C356   1.384       .  A
C355        H358   1.082       .  S
C356        C357   1.381       .  A
C356        C534   1.468       .  S
C357        H359   1.082       .  S
N360        N361   1.323       .  A
N360        C364   1.347   1_655  A
N361        C362   1.348       .  A
C362        C363   1.386       .  A
C362        H365   1.082       .  S
C363        C364   1.387   1_655  A
C363        C797   1.488       .  S
C364        H366   1.082       .  S
N367        N368   1.322       .  A
N367        C371   1.347       .  A
N367       Cu375   2.080       .  S
N368        C369   1.344       .  A
N368       Cu374   2.073       .  S
C369        C370   1.382       .  A
C369        H372   1.082       .  S
C370        C371   1.384       .  A
C370        C546   1.469       .  S
C371        H373   1.082       .  S
Cu374       N377   2.073       .  S
Cu375       N385   2.081       .  S
Cu376       N378   2.082       .  S
Cu376       N384   2.083       .  S
N377        N378   1.323       .  A
N377        C381   1.346       .  A
N378        C379   1.346       .  A
C379        C380   1.383       .  A
C379        H382   1.082       .  S
C380        C381   1.383       .  A
C380        C629   1.470       .  S
C381        H383   1.082       .  S
N384        N385   1.323       .  A
N384        C388   1.348       .  A
N385        C386   1.345       .  A
C386        C387   1.385       .  A
C386        H389   1.081       .  S
C387        C388   1.385       .  A
C387        C774   1.484       .  S
C388        H390   1.082       .  S
N391        N392   1.322       .  A
N391        C395   1.345       .  A
N391       Cu399   2.072       .  S
N392        C393   1.347       .  A
N392       Cu398   2.080       .  S
C393        C394   1.384       .  A
C393        H396   1.082       .  S
C394        C395   1.381       .  A
C394        C615   1.468       .  S
C395        H397   1.082       .  S
Cu398       N401   2.080   1_655  S
Cu399       N409   2.072       .  S
Cu400       N402   2.077       .  S
Cu400       N408   2.077   1_455  S
N401        N402   1.323       .  A
N401        C405   1.346       .  A
N402        C403   1.346       .  A
C403        C404   1.383       .  A
C403        H406   1.082       .  S
C404        C405   1.383       .  A
C404        C532   1.469       .  S
C405        H407   1.082       .  S
N408        N409   1.322       .  A
N408        C412   1.344   1_655  A
N409        C410   1.345       .  A
C410        C411   1.386       .  A
C410        H413   1.080       .  S
C411        C412   1.386   1_655  A
C411        C733   1.484       .  S
C412        H414   1.082       .  S
N415        C420   1.353       .  A
N415        C419   1.351       .  A
N415        H447   1.037       .  S
N416        C423   1.349       .  A
N416        C424   1.351       .  A
N417        C422   1.352       .  A
N417        C421   1.353       .  A
N417        H448   1.038       .  S
N418        C425   1.351       .  A
N418        C426   1.349       .  A
C419        C427   1.387       .  A
C419        C435   1.413       .  A
C420        C436   1.415       .  A
C420        C428   1.387       .  A
C421        C429   1.386       .  A
C421        C438   1.413   1_455  A
C422        C437   1.415       .  A
C422        C430   1.388       .  A
C423        C435   1.410       .  A
C423        C431   1.387       .  A
C424        C438   1.410       .  A
C424        C432   1.386       .  A
C425        C433   1.386       .  A
C425        C436   1.412   1_455  A
C426        C434   1.386       .  A
C426        C437   1.412       .  A
C427        C428   1.375       .  A
C427        H439   1.082       .  S
C428        H440   1.082       .  S
C429        C430   1.375       .  A
C429        H441   1.082       .  S
C430        H442   1.082       .  S
C431        C432   1.371       .  A
C431        H443   1.082       .  S
C432        H444   1.082       .  S
C433        C434   1.374       .  A
C433        H445   1.082       .  S
C434        H446   1.082       .  S
C435        C710   1.479       .  S
C436        C742   1.486       .  S
C437        C637   1.483       .  S
C438        C678   1.485       .  S
N449        N450   1.323       .  A
N449        C453   1.345       .  A
N449       Cu457   2.073       .  S
N450        C451   1.347       .  A
N450       Cu456   2.087       .  S
C451        C452   1.385       .  A
C451        H454   1.082       .  S
C452        C453   1.382       .  A
C452        C548   1.470       .  S
C453        H455   1.082       .  S
Cu456       N459   2.087       .  S
Cu457       N467   2.072       .  S
Cu458       N460   2.064       .  S
Cu458       N466   2.064       .  S
N459        N460   1.322       .  A
N459        C463   1.346       .  A
N460        C461   1.345       .  A
C461        C462   1.381       .  A
C461        H464   1.082       .  S
C462        C463   1.385       .  A
C462        C631   1.470       .  S
C463        H465   1.082       .  S
N466        N467   1.321       .  A
N466        C470   1.343       .  A
N467        C468   1.344       .  A
C468        C469   1.386       .  A
C468        H471   1.082       .  S
C469        C470   1.384       .  A
C469        C701   1.481       .  S
C470        H472   1.079       .  S
N473        N474   1.323       .  A
N473        C477   1.348       .  A
N473       Cu481   2.086       .  S
N474        C475   1.346       .  A
N474       Cu480   2.078   1_455  S
C475        C476   1.383       .  A
C475        H478   1.082       .  S
C476        C477   1.385       .  A
C476        C587   1.473       .  S
C477        H479   1.082       .  S
Cu480       N483   2.077       .  S
Cu481       N491   2.086       .  S
Cu482       N484   2.068       .  S
Cu482       N490   2.069       .  S
N483        N484   1.322       .  A
N483        C487   1.346       .  A
N484        C485   1.344       .  A
C485        C486   1.381       .  A
C485        H488   1.082       .  S
C486        C487   1.383       .  A
C486        C559   1.467       .  S
C487        H489   1.082       .  S
N490        N491   1.322   1_655  A
N490        C494   1.344       .  A
N491        C492   1.346       .  A
C492        C493   1.387   1_455  A
C492        H495   1.080       .  S
C493        C494   1.384       .  A
C493        C669   1.484       .  S
C494        H496   1.082       .  S
N497        N498   1.322       .  A
N497        C501   1.346       .  A
N497       Cu505   2.076       .  S
N498        C499   1.344       .  A
N498       Cu504   2.068       .  S
C499        C500   1.381       .  A
C499        H502   1.082       .  S
C500        C501   1.383       .  A
C500        C576   1.466       .  S
C501        H503   1.082       .  S
Cu504       N507   2.068       .  S
Cu505       N515   2.077       .  S
Cu506       N508   2.073       .  S
Cu506       N514   2.073       .  S
N507        N508   1.322       .  A
N507        C511   1.345       .  A
N508        C509   1.346       .  A
C509        C510   1.383       .  A
C509        H512   1.082       .  S
C510        C511   1.382       .  A
C510        C603   1.467       .  S
C511        H513   1.082       .  S
N514        N515   1.323       .  A
N514        C518   1.345       .  A
N515        C516   1.345       .  A
C516        C517   1.384       .  A
C516        H519   1.082       .  S
C517        C518   1.382       .  A
C517        C646   1.477       .  S
C518        H520   1.082       .  S
O521       Cu529   2.016       .  S
O521        C531   1.278       .  A
O522      Cu1673   2.014   1_554  S
O522        C532   1.278       .  A
O523      Cu1673   2.011   1_554  S
O523        C533   1.278       .  A
O524       Cu529   2.012       .  S
O524        C534   1.278       .  A
O525       Cu530   2.010       .  S
O525        C534   1.277       .  A
O526      Cu1674   2.012   1_554  S
O526        C533   1.277       .  A
O527      Cu1674   2.013   1_554  S
O527        C532   1.278       .  A
O528       Cu530   2.012       .  S
O528        C531   1.278       .  A
Cu529      O1666   2.014       .  S
Cu529      O1667   2.011       .  S
Cu529      Cu530   2.376       .  S
Cu530      O1670   2.012       .  S
Cu530      O1671   2.013       .  S
O535      Cu1687   2.011   1_554  S
O535        C545   1.277       .  A
O536       Cu543   2.015       .  S
O536        C546   1.278       .  A
O537       Cu543   2.014       .  S
O537        C547   1.278       .  A
O538      Cu1687   2.016   1_554  S
O538        C548   1.278       .  A
O539      Cu1688   2.014   1_554  S
O539        C548   1.277       .  A
O540       Cu544   2.016       .  S
O540        C547   1.278       .  A
O541       Cu544   2.010       .  S
O541        C546   1.278       .  A
O542      Cu1688   2.010   1_554  S
O542        C545   1.277       .  A
Cu543      O1679   2.011       .  S
Cu543      O1682   2.016       .  S
Cu543      Cu544   2.376       .  S
Cu544      O1683   2.014       .  S
Cu544      O1686   2.010       .  S
O549      Cu1701   2.014   1_554  S
O549        C559   1.278       .  A
O550       Cu557   2.014       .  S
O550        C560   1.278       .  A
O551       Cu557   2.006       .  S
O551        C561   1.277       .  A
O552      Cu1701   2.004   1_554  S
O552        C562   1.277       .  A
O553      Cu1702   2.004   1_554  S
O553        C562   1.277       .  A
O554       Cu558   2.006       .  S
O554        C561   1.277       .  A
O555       Cu558   2.003       .  S
O555        C560   1.277       .  A
O556      Cu1702   2.005   1_554  S
O556        C559   1.277       .  A
Cu557      O1693   2.014       .  S
Cu557      O1696   2.004       .  S
Cu557      Cu558   2.378       .  S
Cu558      O1697   2.004       .  S
Cu558      O1700   2.005       .  S
O563      Cu1715   2.011   1_554  S
O563        C573   1.277       .  A
O564       Cu571   2.008   1_545  S
O564        C574   1.277       .  A
O565       Cu571   2.007       .  S
O565        C575   1.278       .  A
O566      Cu1715   2.008   1_544  S
O566        C576   1.277       .  A
O567      Cu1716   2.009       .  S
O567        C576   1.278       .  A
O568       Cu572   2.014       .  S
O568        C575   1.277   1_545  A
O569       Cu572   2.011       .  S
O569        C574   1.278       .  A
O570      Cu1716   2.015       .  S
O570        C573   1.278   1_545  A
Cu571      O1707   2.011       .  S
Cu571      O1710   2.008   1_565  S
Cu571      Cu572   2.377   1_565  S
Cu572      O1711   2.009       .  S
Cu572      O1714   2.015       .  S
O577       Cu585   2.016       .  S
O577        C587   1.278       .  A
O578       Cu585   2.013       .  S
O578        C588   1.278       .  A
O579       Cu585   2.008       .  S
O579        C589   1.277       .  A
O580       Cu585   2.011       .  S
O580        C590   1.277       .  A
O581       Cu586   2.009       .  S
O581        C590   1.277       .  A
O582       Cu586   2.006       .  S
O582        C589   1.277       .  A
O583       Cu586   2.020       .  S
O583        C588   1.278       .  A
O584       Cu586   2.019       .  S
O584        C587   1.278       .  A
Cu585      Cu586   2.376       .  S
O591       Cu599   2.009       .  S
O591        C601   1.277       .  A
O592       Cu599   2.012       .  S
O592        C602   1.277       .  A
O593       Cu599   2.011       .  S
O593        C603   1.277       .  A
O594       Cu599   2.018       .  S
O594        C604   1.278       .  A
O595       Cu600   2.013       .  S
O595        C604   1.278       .  A
O596       Cu600   2.011       .  S
O596        C603   1.278       .  A
O597       Cu600   2.011       .  S
O597        C602   1.278       .  A
O598       Cu600   2.014       .  S
O598        C601   1.278       .  A
Cu599      Cu600   2.376       .  S
O605       Cu613   2.010       .  S
O605        C615   1.277       .  A
O606       Cu613   2.007       .  S
O606        C616   1.277       .  A
O607       Cu613   2.012       .  S
O607        C617   1.278       .  A
O608       Cu613   2.011       .  S
O608        C618   1.278       .  A
O609       Cu614   2.007       .  S
O609        C618   1.277       .  A
O610       Cu614   2.006       .  S
O610        C617   1.277       .  A
O611       Cu614   2.017       .  S
O611        C616   1.278       .  A
O612       Cu614   2.015       .  S
O612        C615   1.278       .  A
Cu613      Cu614   2.377       .  S
O619       Cu627   2.010   1_545  S
O619        C629   1.277       .  A
O620       Cu627   2.010       .  S
O620        C630   1.277       .  A
O621       Cu627   2.021   1_545  S
O621        C631   1.279       .  A
O622       Cu627   2.023       .  S
O622        C632   1.279       .  A
O623       Cu628   2.006   1_565  S
O623        C632   1.277       .  A
O624       Cu628   2.007       .  S
O624        C631   1.276       .  A
O625       Cu628   2.016   1_565  S
O625        C630   1.279       .  A
O626       Cu628   2.017       .  S
O626        C629   1.279       .  A
Cu627      Cu628   2.376   1_565  S
C633        C634   1.401       .  A
C633        C638   1.401       .  A
C633        H643   1.084       .  S
C634        C635   1.411       .  A
C634        C639   1.479       .  S
C635        C636   1.403       .  A
C635        C640   1.506       .  S
C636        C637   1.402       .  A
C636        H641   1.084       .  S
C637        C638   1.414       .  A
C638        C642   1.507       .  S
C639        C644   1.410       .  A
C639        C648   1.400       .  A
C640        H656   1.110       .  S
C640        H657   1.110       .  S
C640        H658   1.111       .  S
C642        H653   1.110       .  S
C642        H654   1.110       .  S
C642        H655   1.108       .  S
C644        C645   1.403       .  A
C644        C649   1.507       .  S
C645        C646   1.404       .  A
C645        H650   1.084       .  S
C646        C647   1.416       .  A
C647        C648   1.402       .  A
C647        C651   1.508       .  S
C648        H652   1.085       .  S
C649        H659   1.111       .  S
C649        H660   1.110       .  S
C649        H661   1.110       .  S
C651        H662   1.111       .  S
C651        H663   1.107       .  S
C651        H664   1.110       .  S
C665        C666   1.400   1_455  A
C665        C670   1.405       .  A
C665        H675   1.084       .  S
C666        C667   1.410       .  A
C666        C671   1.480       .  S
C667        C668   1.404       .  A
C667        C672   1.507       .  S
C668        C669   1.406       .  A
C668        H673   1.084       .  S
C669        C670   1.417   1_655  A
C670        C674   1.507       .  S
C671        C676   1.412       .  A
C671        C680   1.401       .  A
C672        H688   1.110       .  S
C672        H689   1.109       .  S
C672        H690   1.111       .  S
C674        H685   1.107       .  S
C674        H686   1.111       .  S
C674        H687   1.110       .  S
C676        C677   1.403       .  A
C676        C681   1.507       .  S
C677        C678   1.402   1_565  A
C677        H682   1.084       .  S
C678        C679   1.414   1_545  A
C679        C680   1.403       .  A
C679        C683   1.507   1_655  S
C680        H684   1.084   1_655  S
C681        H691   1.111       .  S
C681        H692   1.110   1_655  S
C681        H693   1.109       .  S
C683        H694   1.110       .  S
C683        H695   1.108   1_565  S
C683        H696   1.110   1_455  S
C697        C698   1.399       .  A
C697        C702   1.402       .  A
C697        H707   1.084       .  S
C698        C699   1.410       .  A
C698        C703   1.477       .  S
C699        C700   1.401       .  A
C699        C704   1.507       .  S
C700        C701   1.406       .  A
C700        H705   1.084       .  S
C701        C702   1.418       .  A
C702        C706   1.507       .  S
C703        C708   1.412       .  A
C703        C712   1.401       .  A
C704        H720   1.109       .  S
C704        H721   1.110       .  S
C704        H722   1.111       .  S
C706        H717   1.107       .  S
C706        H718   1.111       .  S
C706        H719   1.110       .  S
C708        C709   1.401       .  A
C708        C713   1.507       .  S
C709        C710   1.402       .  A
C709        H714   1.084       .  S
C710        C711   1.412       .  A
C711        C712   1.398       .  A
C711        C715   1.507       .  S
C712        H716   1.085       .  S
C713        H723   1.111       .  S
C713        H724   1.109       .  S
C713        H725   1.110       .  S
C715        H726   1.110       .  S
C715        H727   1.108       .  S
C715        H728   1.110       .  S
C729        C730   1.400       .  A
C729        C734   1.405       .  A
C729        H739   1.084       .  S
C730        C731   1.409   1_655  A
C730        C735   1.479       .  S
C731        C732   1.403       .  A
C731        C736   1.506       .  S
C732        C733   1.406   1_455  A
C732        H737   1.084       .  S
C733        C734   1.419       .  A
C734        C738   1.507       .  S
C735        C740   1.410       .  A
C735        C744   1.401       .  A
C736        H752   1.110       .  S
C736        H753   1.110       .  S
C736        H754   1.111       .  S
C738        H749   1.111       .  S
C738        H750   1.110       .  S
C738        H751   1.107       .  S
C740        C741   1.403       .  A
C740        C745   1.506   1_655  S
C741        C742   1.403       .  A
C741        H746   1.084   1_655  S
C742        C743   1.414       .  A
C743        C744   1.403       .  A
C743        C747   1.507       .  S
C744        H748   1.084       .  S
C745        H755   1.111       .  S
C745        H756   1.110   1_455  S
C745        H757   1.110       .  S
C747        H758   1.110       .  S
C747        H759   1.108       .  S
C747        H760   1.110   1_655  S
C761        C762   1.402       .  A
C761        C766   1.405       .  A
C761        H771   1.084       .  S
C762        C763   1.411       .  A
C762        C767   1.484       .  S
C763        C764   1.405       .  A
C763        C768   1.506       .  S
C764        C765   1.403       .  A
C764        H769   1.084       .  S
C765        C766   1.415       .  A
C766        C770   1.507       .  S
C767        C772   1.412       .  A
C767        C776   1.400       .  A
C768        H784   1.110       .  S
C768        H785   1.109       .  S
C768        H786   1.111       .  S
C770        H781   1.110       .  S
C770        H782   1.110       .  S
C770        H783   1.108       .  S
C772        C773   1.407       .  A
C772        C777   1.506       .  S
C773        C774   1.405       .  A
C773        H778   1.084       .  S
C774        C775   1.416       .  A
C775        C776   1.404       .  A
C775        C779   1.507       .  S
C776        H780   1.084       .  S
C777        H787   1.111       .  S
C777        H788   1.110       .  S
C777        H789   1.109       .  S
C779        H790   1.107       .  S
C779        H791   1.110       .  S
C779        H792   1.111       .  S
C793        C794   1.402   1_455  A
C793        C798   1.406       .  A
C793        H803   1.084       .  S
C794        C795   1.413       .  A
C794        C799   1.491       .  S
C795        C796   1.407       .  A
C795        C800   1.506       .  S
C796        C797   1.405       .  A
C796        H801   1.084       .  S
C797        C798   1.419   1_655  A
C798        C802   1.508       .  S
C799        C804   1.414   1_655  A
C799        C808   1.403       .  A
C800        H816   1.109       .  S
C800        H817   1.110       .  S
C800        H818   1.111       .  S
C802        H813   1.111       .  S
C802        H814   1.110       .  S
C802        H815   1.106       .  S
C804        C805   1.408       .  A
C804        C809   1.506       .  S
C805        C806   1.404   1_455  A
C805        H810   1.084       .  S
C806        C807   1.416       .  A
C807        C808   1.405       .  A
C807        C811   1.507       .  S
C808        H812   1.084       .  S
C809        H819   1.111       .  S
C809        H820   1.109       .  S
C809        H821   1.110   1_455  S
C811        H822   1.110       .  S
C811        H823   1.110       .  S
C811        H824   1.108       .  S
C825        C826   1.402       .  A
C825        C830   1.404       .  A
C825        H835   1.084       .  S
C826        C827   1.412       .  A
C826        C831   1.483       .  S
C827        C828   1.403       .  A
C827        C832   1.507       .  S
C828        C829   1.402       .  A
C828        H833   1.084       .  S
C829        C830   1.415       .  A
C830        C834   1.507       .  S
C831        C836   1.411       .  A
C831        C840   1.401       .  A
C832        H848   1.110       .  S
C832        H849   1.110       .  S
C832        H850   1.111       .  S
C834        H845   1.110       .  S
C834        H846   1.110       .  S
C834        H847   1.108       .  S
C836        C837   1.404       .  A
C836        C841   1.506       .  S
C837        C838   1.404       .  A
C837        H842   1.084       .  S
C838        C839   1.417       .  A
C839        C840   1.403       .  A
C839        C843   1.508       .  S
C840        H844   1.085       .  S
C841        H851   1.111       .  S
C841        H852   1.110       .  S
C841        H853   1.110       .  S
C843        H854   1.110       .  S
C843        H855   1.106       .  S
C843        H856   1.111       .  S
C857        C858   1.401       .  A
C857        C862   1.404       .  A
C857        H867   1.084       .  S
C858        C859   1.410   1_455  A
C858        C863   1.481       .  S
C859        C860   1.403       .  A
C859        C864   1.506       .  S
C860        C861   1.404   1_655  A
C860        H865   1.084       .  S
C861        C862   1.417       .  A
C862        C866   1.507       .  S
C863        C868   1.412       .  A
C863        C872   1.401   1_455  A
C864        H880   1.110       .  S
C864        H881   1.110       .  S
C864        H882   1.111       .  S
C866        H877   1.110       .  S
C866        H878   1.111       .  S
C866        H879   1.107       .  S
C868        C869   1.404       .  A
C868        C873   1.506       .  S
C869        C870   1.403       .  A
C869        H874   1.084       .  S
C870        C871   1.414   1_455  A
C871        C872   1.402       .  A
C871        C875   1.507       .  S
C872        H876   1.084       .  S
C873        H883   1.111       .  S
C873        H884   1.110       .  S
C873        H885   1.110   1_455  S
C875        H886   1.110   1_655  S
C875        H887   1.108   1_565  S
C875        H888   1.110       .  S
C889        C890   1.402       .  A
C889        C894   1.403       .  A
C889        H899   1.084       .  S
C890        C891   1.409       .  A
C890        C895   1.476       .  S
C891        C892   1.400       .  A
C891        C896   1.507       .  S
C892        C893   1.402       .  A
C892        H897   1.084       .  S
C893        C894   1.414       .  A
C894        C898   1.507       .  S
C895        C900   1.409       .  A
C895        C904   1.400       .  A
C896        H912   1.110       .  S
C896        H913   1.110       .  S
C896        H914   1.111       .  S
C898        H909   1.110       .  S
C898        H910   1.110       .  S
C898        H911   1.108       .  S
C900        C901   1.401       .  A
C900        C905   1.507       .  S
C901        C902   1.404       .  A
C901        H906   1.084       .  S
C902        C903   1.418       .  A
C903        C904   1.403       .  A
C903        C907   1.508       .  S
C904        H908   1.085       .  S
C905        H915   1.111       .  S
C905        H916   1.110       .  S
C905        H917   1.110       .  S
C907        H918   1.111       .  S
C907        H919   1.105       .  S
C907        H920   1.110       .  S
C921        C922   1.400       .  A
C921        C926   1.406       .  A
C921        H931   1.084       .  S
C922        C923   1.409       .  A
C922        C927   1.483       .  S
C923        C924   1.405       .  A
C923        C928   1.507       .  S
C924        C925   1.408       .  A
C924        H929   1.084       .  S
C925        C926   1.420       .  A
C926        C930   1.507       .  S
C927        C932   1.411       .  A
C927        C936   1.402       .  A
C928        H944   1.110       .  S
C928        H945   1.109       .  S
C928        H946   1.111       .  S
C930        H941   1.111       .  S
C930        H942   1.110       .  S
C930        H943   1.107       .  S
C932        C933   1.404       .  A
C932        C937   1.506       .  S
C933        C934   1.403       .  A
C933        H938   1.084       .  S
C934        C935   1.415       .  A
C935        C936   1.404       .  A
C935        C939   1.507       .  S
C936        H940   1.084       .  S
C937        H947   1.111       .  S
C937        H948   1.110       .  S
C937        H949   1.109       .  S
C939        H950   1.110       .  S
C939        H951   1.110       .  S
C939        H952   1.108       .  S
C953        C954   1.402       .  A
C953        C958   1.404       .  A
C953        H963   1.084       .  S
C954        C955   1.412       .  A
C954        C959   1.484       .  S
C955        C956   1.404       .  A
C955        C960   1.506       .  S
C956        C957   1.403       .  A
C956        H961   1.084       .  S
C957        C958   1.415       .  A
C958        C962   1.507       .  S
C959        C964   1.411       .  A
C959        C968   1.400       .  A
C960        H976   1.110       .  S
C960        H977   1.110       .  S
C960        H978   1.111       .  S
C962        H973   1.110       .  S
C962        H974   1.110       .  S
C962        H975   1.108       .  S
C964        C965   1.406       .  A
C964        C969   1.506       .  S
C965        C966   1.407       .  A
C965        H970   1.084       .  S
C966        C967   1.417       .  A
C967        C968   1.404       .  A
C967        C971   1.507       .  S
C968        H972   1.084       .  S
C969        H979   1.111       .  S
C969        H980   1.110       .  S
C969        H981   1.110       .  S
C971        H982   1.110       .  S
C971        H983   1.107       .  S
C971        H984   1.111       .  S
C985        C986   1.401       .  A
C985        C990   1.407       .  A
C985        H995   1.084       .  S
C986        C987   1.409       .  A
C986        C991   1.483       .  S
C987        C988   1.403       .  A
C987        C992   1.506       .  S
C988        C989   1.405       .  A
C988        H993   1.084       .  S
C989        C990   1.419       .  A
C990        C994   1.507       .  S
C991        C996   1.411       .  A
C991       C1000   1.401       .  A
C992       H1008   1.110       .  S
C992       H1009   1.110       .  S
C992       H1010   1.111       .  S
C994       H1005   1.107       .  S
C994       H1006   1.111       .  S
C994       H1007   1.110       .  S
C996        C997   1.406       .  A
C996       C1001   1.506       .  S
C997        C998   1.404       .  A
C997       H1002   1.084       .  S
C998        C999   1.416       .  A
C999       C1000   1.403       .  A
C999       C1003   1.507       .  S
C1000      H1004   1.084       .  S
C1001      H1011   1.111       .  S
C1001      H1012   1.110       .  S
C1001      H1013   1.110       .  S
C1003      H1014   1.110       .  S
C1003      H1015   1.108       .  S
C1003      H1016   1.110       .  S
C1017      C1018   1.401       .  A
C1017      C1022   1.401       .  A
C1017      H1027   1.084       .  S
C1018      C1019   1.411       .  A
C1018      C1023   1.477       .  S
C1019      C1020   1.402       .  A
C1019      C1024   1.506       .  S
C1020      C1021   1.402       .  A
C1020      H1025   1.084       .  S
C1021      C1022   1.414       .  A
C1022      C1026   1.507       .  S
C1023      C1028   1.409       .  A
C1023      C1032   1.400       .  A
C1024      H1040   1.110       .  S
C1024      H1041   1.110       .  S
C1024      H1042   1.111       .  S
C1026      H1037   1.110       .  S
C1026      H1038   1.110       .  S
C1026      H1039   1.108       .  S
C1028      C1029   1.401       .  A
C1028      C1033   1.507       .  S
C1029      C1030   1.405       .  A
C1029      H1034   1.084       .  S
C1030      C1031   1.418       .  A
C1031      C1032   1.403       .  A
C1031      C1035   1.508       .  S
C1032      H1036   1.085       .  S
C1033      H1043   1.111       .  S
C1033      H1044   1.110       .  S
C1033      H1045   1.110       .  S
C1035      H1046   1.110       .  S
C1035      H1047   1.105       .  S
C1035      H1048   1.111       .  S
C1049      C1050   1.401       .  A
C1049      C1054   1.402       .  A
C1049      H1059   1.084       .  S
C1050      C1051   1.412       .  A
C1050      C1055   1.482       .  S
C1051      C1052   1.405       .  A
C1051      C1056   1.506       .  S
C1052      C1053   1.403       .  A
C1052      H1057   1.084       .  S
C1053      C1054   1.414       .  A
C1054      C1058   1.508       .  S
C1055      C1060   1.411       .  A
C1055      C1064   1.402       .  A
C1056      H1072   1.110       .  S
C1056      H1073   1.110       .  S
C1056      H1074   1.111       .  S
C1058      H1069   1.110       .  S
C1058      H1070   1.110       .  S
C1058      H1071   1.108       .  S
C1060      C1061   1.404       .  A
C1060      C1065   1.506       .  S
C1061      C1062   1.403       .  A
C1061      H1066   1.084       .  S
C1062      C1063   1.414       .  A
C1063      C1064   1.406       .  A
C1063      C1067   1.506       .  S
C1064      H1068   1.084       .  S
C1065      H1075   1.111       .  S
C1065      H1076   1.110       .  S
C1065      H1077   1.110       .  S
C1067      H1078   1.109       .  S
C1067      H1079   1.110       .  S
C1067      H1080   1.111       .  S
C1081      C1082   1.402       .  A
C1081      C1086   1.401       .  A
C1081      H1091   1.084       .  S
C1082      C1083   1.413       .  A
C1082      C1087   1.482       .  S
C1083      C1084   1.403       .  A
C1083      C1088   1.506       .  S
C1084      C1085   1.402       .  A
C1084      H1089   1.084       .  S
C1085      C1086   1.414       .  A
C1086      C1090   1.507       .  S
C1087      C1092   1.411       .  A
C1087      C1096   1.401       .  A
C1088      H1104   1.109       .  S
C1088      H1105   1.110       .  S
C1088      H1106   1.111       .  S
C1090      H1101   1.110       .  S
C1090      H1102   1.110       .  S
C1090      H1103   1.108       .  S
C1092      C1093   1.404       .  A
C1092      C1097   1.507       .  S
C1093      C1094   1.405       .  A
C1093      H1098   1.084       .  S
C1094      C1095   1.417       .  A
C1095      C1096   1.402       .  A
C1095      C1099   1.508       .  S
C1096      H1100   1.085       .  S
C1097      H1107   1.111       .  S
C1097      H1108   1.109       .  S
C1097      H1109   1.110       .  S
C1099      H1110   1.110       .  S
C1099      H1111   1.106       .  S
C1099      H1112   1.111       .  S
C1113      C1114   1.401       .  A
C1113      C1118   1.405       .  A
C1113      H1123   1.084       .  S
C1114      C1115   1.411       .  A
C1114      C1119   1.482       .  S
C1115      C1116   1.404       .  A
C1115      C1120   1.506       .  S
C1116      C1117   1.403       .  A
C1116      H1121   1.084       .  S
C1117      C1118   1.416       .  A
C1118      C1122   1.507       .  S
C1119      C1124   1.411       .  A
C1119      C1128   1.401       .  A
C1120      H1136   1.110       .  S
C1120      H1137   1.110       .  S
C1120      H1138   1.111       .  S
C1122      H1133   1.110       .  S
C1122      H1134   1.111       .  S
C1122      H1135   1.108       .  S
C1124      C1125   1.405       .  A
C1124      C1129   1.506       .  S
C1125      C1126   1.404       .  A
C1125      H1130   1.084       .  S
C1126      C1127   1.415       .  A
C1127      C1128   1.403       .  A
C1127      C1131   1.507       .  S
C1128      H1132   1.084       .  S
C1129      H1139   1.111       .  S
C1129      H1140   1.110       .  S
C1129      H1141   1.110       .  S
C1131      H1142   1.110       .  S
C1131      H1143   1.108       .  S
C1131      H1144   1.110       .  S
N1145      N1146   1.322       .  A
N1145      C1149   1.345       .  A
N1145     Cu1153   2.072       .  S
N1146      C1147   1.345       .  A
N1146     Cu1152   2.071       .  S
C1147      C1148   1.382       .  A
C1147      H1150   1.082       .  S
C1148      C1149   1.382       .  A
C1148      C1689   1.466       .  S
C1149      H1151   1.082       .  S
Cu1152     N1155   2.072       .  S
Cu1153     N1163   2.073       .  S
Cu1154     N1156   2.080       .  S
Cu1154     N1162   2.080       .  S
N1155      N1156   1.323       .  A
N1155      C1159   1.344       .  A
N1156      C1157   1.347       .  A
C1157      C1158   1.384       .  A
C1157      H1160   1.082       .  S
C1158      C1159   1.381       .  A
C1158      C1746   1.469       .  S
C1159      H1161   1.082       .  S
N1162      N1163   1.323       .  A
N1162      C1166   1.346       .  A
N1163      C1164   1.344       .  A
C1164      C1165   1.382       .  A
C1164      H1167   1.081       .  S
C1165      C1166   1.383       .  A
C1165      C2261   1.478       .  S
C1166      H1168   1.082       .  S
N1169      C1174   1.352       .  A
N1169      C1173   1.353       .  A
N1169      H1201   1.036       .  S
N1170      C1177   1.352       .  A
N1170      C1178   1.350       .  A
N1171      C1176   1.354       .  A
N1171      C1175   1.353       .  A
N1171      H1202   1.037       .  S
N1172      C1179   1.352       .  A
N1172      C1180   1.352       .  A
C1173      C1181   1.386       .  A
C1173      C1189   1.414       .  A
C1174      C1190   1.415       .  A
C1174      C1182   1.388       .  A
C1175      C1183   1.387       .  A
C1175      C1192   1.417       .  A
C1176      C1191   1.418       .  A
C1176      C1184   1.387       .  A
C1177      C1189   1.412       .  A
C1177      C1185   1.385       .  A
C1178      C1192   1.413       .  A
C1178      C1186   1.387       .  A
C1179      C1187   1.386       .  A
C1179      C1190   1.414       .  A
C1180      C1188   1.386       .  A
C1180      C1191   1.414       .  A
C1181      C1182   1.375       .  A
C1181      H1193   1.082       .  S
C1182      H1194   1.082       .  S
C1183      C1184   1.377       .  A
C1183      H1195   1.082       .  S
C1184      H1196   1.082       .  S
C1185      C1186   1.371       .  A
C1185      H1197   1.082       .  S
C1186      H1198   1.082       .  S
C1187      C1188   1.373       .  A
C1187      H1199   1.082       .  S
C1188      H1200   1.082       .  S
C1189      C2197   1.486       .  S
C1190      C2229   1.485       .  S
C1191      C2270   1.489       .  S
C1192      C2165   1.484       .  S
N1203      N1204   1.322       .  A
N1203      C1207   1.346       .  A
N1203     Cu1211   2.078       .  S
N1204      C1205   1.344       .  A
N1204     Cu1210   2.067       .  S
C1205      C1206   1.381       .  A
C1205      H1208   1.082       .  S
C1206      C1207   1.383       .  A
C1206      C1762   1.466       .  S
C1207      H1209   1.082       .  S
Cu1210     N1213   2.067       .  S
Cu1211     N1221   2.078       .  S
Cu1212     N1214   2.068       .  S
Cu1212     N1220   2.069       .  S
N1213      N1214   1.322       .  A
N1213      C1217   1.344       .  A
N1214      C1215   1.344       .  A
C1215      C1216   1.380       .  A
C1215      H1218   1.082       .  S
C1216      C1217   1.381       .  A
C1216      C1706   1.462       .  S
C1217      H1219   1.082       .  S
N1220      N1221   1.322       .  A
N1220      C1224   1.345       .  A
N1221      C1222   1.345       .  A
C1222      C1223   1.385       .  A
C1222      H1225   1.082       .  S
C1223      C1224   1.383       .  A
C1223      C2238   1.480       .  S
C1224      H1226   1.082       .  S
N1227      N1228   1.322       .  A
N1227      C1231   1.345       .  A
N1227     Cu1235   2.075       .  S
N1228      C1229   1.346       .  A
N1228     Cu1234   2.075       .  S
C1229      C1230   1.383       .  A
C1229      H1232   1.082       .  S
C1230      C1231   1.383       .  A
C1230      C1717   1.469       .  S
C1231      H1233   1.082       .  S
Cu1234     N1237   2.075       .  S
Cu1235     N1245   2.076       .  S
Cu1236     N1238   2.084       .  S
Cu1236     N1244   2.084       .  S
N1237      N1238   1.323       .  A
N1237      C1241   1.345       .  A
N1238      C1239   1.347       .  A
C1239      C1240   1.384       .  A
C1239      H1242   1.082       .  S
C1240      C1241   1.382       .  A
C1240      C1774   1.470       .  S
C1241      H1243   1.082       .  S
N1244      N1245   1.323       .  A
N1244      C1248   1.347       .  A
N1245      C1246   1.345       .  A
C1246      C1247   1.382       .  A
C1246      H1249   1.082       .  S
C1247      C1248   1.385       .  A
C1247      C2206   1.479       .  S
C1248      H1250   1.082       .  S
N1251      N1252   1.322       .  A
N1251      C1255   1.346       .  A
N1251     Cu1259   2.074       .  S
N1252      C1253   1.345       .  A
N1252     Cu1258   2.077       .  S
C1253      C1254   1.382       .  A
C1253      H1256   1.082       .  S
C1254      C1255   1.383       .  A
C1254      C1677   1.468       .  S
C1255      H1257   1.082       .  S
Cu1258     N1261   2.077       .  S
Cu1259     N1269   2.074       .  S
Cu1260     N1262   2.068       .  S
Cu1260     N1268   2.069       .  S
N1261      N1262   1.322       .  A
N1261      C1265   1.346       .  A
N1262      C1263   1.344       .  A
C1263      C1264   1.381       .  A
C1263      H1266   1.082       .  S
C1264      C1265   1.384       .  A
C1264      C1734   1.468       .  S
C1265      H1267   1.082       .  S
N1268      N1269   1.322       .  A
N1268      C1272   1.344       .  A
N1269      C1270   1.344       .  A
C1270      C1271   1.383       .  A
C1270      H1273   1.082       .  S
C1271      C1272   1.384       .  A
C1271      C2174   1.478       .  S
C1272      H1274   1.082       .  S
N1275      N1276   1.324       .  A
N1275      C1279   1.348       .  A
N1275     Cu1283   2.085       .  S
N1276      C1277   1.345       .  A
N1276     Cu1282   2.085       .  S
C1277      C1278   1.383       .  A
C1277      H1280   1.082       .  S
C1278      C1279   1.383       .  A
C1278      C1776   1.471       .  S
C1279      H1281   1.082       .  S
Cu1282     N1285   2.084       .  S
Cu1283     N1293   2.085       .  S
Cu1284     N1286   2.063       .  S
Cu1284     N1292   2.064       .  S
N1285      N1286   1.322       .  A
N1285      C1289   1.348       .  A
N1286      C1287   1.343       .  A
C1287      C1288   1.380       .  A
C1287      H1290   1.082       .  S
C1288      C1289   1.386       .  A
C1288      C1719   1.468       .  S
C1289      H1291   1.082       .  S
N1292      N1293   1.321       .  A
N1292      C1296   1.344       .  A
N1293      C1294   1.346       .  A
C1294      C1295   1.389       .  A
C1294      H1297   1.082       .  S
C1295      C1296   1.384       .  A
C1295      C2133   1.486       .  S
C1296      H1298   1.080       .  S
N1299      C1304   1.355       .  A
N1299      C1303   1.353       .  A
N1299      H1331   1.036       .  S
N1300      C1307   1.353       .  A
N1300      C1308   1.353       .  A
N1301      C1306   1.353       .  A
N1301      C1305   1.355       .  A
N1301      H1332   1.034       .  S
N1302      C1309   1.352       .  A
N1302      C1310   1.351       .  A
C1303      C1311   1.387       .  A
C1303      C1319   1.417       .  A
C1304      C1320   1.417       .  A
C1304      C1312   1.387       .  A
C1305      C1313   1.387       .  A
C1305      C1322   1.419       .  A
C1306      C1321   1.419       .  A
C1306      C1314   1.388       .  A
C1307      C1319   1.417       .  A
C1307      C1315   1.386       .  A
C1308      C1322   1.417       .  A
C1308      C1316   1.387       .  A
C1309      C1317   1.386       .  A
C1309      C1320   1.413       .  A
C1310      C1318   1.387       .  A
C1310      C1321   1.415       .  A
C1311      C1312   1.374       .  A
C1311      H1323   1.082       .  S
C1312      H1324   1.082       .  S
C1313      C1314   1.376       .  A
C1313      H1325   1.082       .  S
C1314      H1326   1.082       .  S
C1315      C1316   1.372       .  A
C1315      H1327   1.082       .  S
C1316      H1328   1.082       .  S
C1317      C1318   1.371       .  A
C1317      H1329   1.082       .  S
C1318      H1330   1.082       .  S
C1319      C2101   1.489       .  S
C1320      C2078   1.489       .  S
C1321      C2037   1.484       .  S
C1322      C2142   1.491       .  S
N1333      N1334   1.324       .  A
N1333      C1337   1.349       .  A
N1333     Cu1341   2.087       .  S
N1334      C1335   1.344       .  A
N1334     Cu1340   2.079       .  S
C1335      C1336   1.382       .  A
C1335      H1338   1.082       .  S
C1336      C1337   1.385       .  A
C1336      C1732   1.472       .  S
C1337      H1339   1.082       .  S
Cu1340     N1343   2.078       .  S
Cu1341     N1351   2.088       .  S
Cu1342     N1344   2.075       .  S
Cu1342     N1350   2.075       .  S
N1343      N1344   1.322       .  A
N1343      C1347   1.347       .  A
N1344      C1345   1.345       .  A
C1345      C1346   1.382       .  A
C1345      H1348   1.082       .  S
C1346      C1347   1.384       .  A
C1346      C1675   1.470       .  S
C1347      H1349   1.082       .  S
N1350      N1351   1.323       .  A
N1350      C1354   1.345       .  A
N1351      C1352   1.347       .  A
C1352      C1353   1.388       .  A
C1352      H1355   1.080       .  S
C1353      C1354   1.384       .  A
C1353      C2110   1.486       .  S
C1354      H1356   1.082       .  S
N1357      N1358   1.324       .  A
N1357      C1361   1.347       .  A
N1357     Cu1365   2.084       .  S
N1358      C1359   1.347       .  A
N1358     Cu1364   2.084       .  S
C1359      C1360   1.384       .  A
C1359      H1362   1.082       .  S
C1360      C1361   1.384       .  A
C1360      C1748   1.472       .  S
C1361      H1363   1.082       .  S
Cu1364     N1367   2.084       .  S
Cu1365     N1375   2.084       .  S
Cu1366     N1368   2.076       .  S
Cu1366     N1374   2.076       .  S
N1367      N1368   1.323       .  A
N1367      C1371   1.347       .  A
N1368      C1369   1.346       .  A
C1369      C1370   1.382       .  A
C1369      H1372   1.082       .  S
C1370      C1371   1.384       .  A
C1370      C1691   1.470       .  S
C1371      H1373   1.082       .  S
N1374      N1375   1.321       .  A
N1374      C1378   1.345       .  A
N1375      C1376   1.347       .  A
C1376      C1377   1.390       .  A
C1376      H1379   1.079       .  S
C1377      C1378   1.387       .  A
C1377      C2069   1.491       .  S
C1378      H1380   1.082       .  S
N1381      N1382   1.323       .  A
N1381      C1385   1.347       .  A
N1381     Cu1389   2.079       .  S
N1382      C1383   1.344       .  A
N1382     Cu1388   2.076       .  S
C1383      C1384   1.381       .  A
C1383      H1386   1.082       .  S
C1384      C1385   1.383       .  A
C1384      C1760   1.468       .  S
C1385      H1387   1.082       .  S
Cu1388     N1391   2.075       .  S
Cu1389     N1399   2.078       .  S
Cu1390     N1392   2.064       .  S
Cu1390     N1398   2.064       .  S
N1391      N1392   1.321       .  A
N1391      C1395   1.346       .  A
N1392      C1393   1.343       .  A
C1393      C1394   1.381       .  A
C1393      H1396   1.082       .  S
C1394      C1395   1.384       .  A
C1394      C1704   1.466       .  S
C1395      H1397   1.082       .  S
N1398      N1399   1.323       .  A
N1398      C1402   1.343       .  A
N1399      C1400   1.346       .  A
C1400      C1401   1.385       .  A
C1400      H1403   1.082       .  S
C1401      C1402   1.380       .  A
C1401      C2046   1.476       .  S
C1402      H1404   1.082       .  S
N1405      N1406   1.322       .  A
N1405      C1409   1.343       .  A
N1405     Cu1413   2.067       .  S
N1406      C1407   1.346       .  A
N1406     Cu1412   2.075       .  S
C1407      C1408   1.383       .  A
C1407      H1410   1.082       .  S
C1408      C1409   1.380       .  A
C1408      C1733   1.464       .  S
C1409      H1411   1.082       .  S
Cu1412     N1415   2.075   1_455  S
Cu1413     N1423   2.067       .  S
Cu1414     N1416   2.069       .  S
Cu1414     N1422   2.069       .  S
N1415      N1416   1.323       .  A
N1415      C1419   1.345       .  A
N1416      C1417   1.344       .  A
C1417      C1418   1.380       .  A
C1417      H1420   1.082       .  S
C1418      C1419   1.382       .  A
C1418      C1705   1.464       .  S
C1419      H1421   1.082       .  S
N1422      N1423   1.321   1_655  A
N1422      C1426   1.344       .  A
N1423      C1424   1.344       .  A
C1424      C1425   1.384       .  A
C1424      H1427   1.080       .  S
C1425      C1426   1.385   1_455  A
C1425      C2005   1.480       .  S
C1426      H1428   1.082       .  S
N1429      C1434   1.354       .  A
N1429      C1433   1.354       .  A
N1429      H1461   1.043       .  S
N1430      C1437   1.353       .  A
N1430      C1438   1.353       .  A
N1431      C1436   1.352       .  A
N1431      C1435   1.352       .  A
N1431      H1462   1.043       .  S
N1432      C1439   1.352       .  A
N1432      C1440   1.352       .  A
C1433      C1441   1.387       .  A
C1433      C1449   1.420   1_455  A
C1434      C1450   1.419       .  A
C1434      C1442   1.388       .  A
C1435      C1443   1.388       .  A
C1435      C1452   1.418       .  A
C1436      C1451   1.416   1_655  A
C1436      C1444   1.387       .  A
C1437      C1449   1.418       .  A
C1437      C1445   1.386       .  A
C1438      C1452   1.418       .  A
C1438      C1446   1.386       .  A
C1439      C1447   1.387       .  A
C1439      C1450   1.415       .  A
C1440      C1448   1.386       .  A
C1440      C1451   1.415       .  A
C1441      C1442   1.376       .  A
C1441      H1453   1.082       .  S
C1442      H1454   1.082       .  S
C1443      C1444   1.375       .  A
C1443      H1455   1.083       .  S
C1444      H1456   1.083       .  S
C1445      C1446   1.374       .  A
C1445      H1457   1.082       .  S
C1446      H1458   1.082       .  S
C1447      C1448   1.372       .  A
C1447      H1459   1.082       .  S
C1448      H1460   1.082       .  S
C1449      C1950   1.495       .  S
C1450      C1973   1.489       .  S
C1451      C2014   1.487   1_545  S
C1452      C1909   1.491       .  S
N1463      N1464   1.322       .  A
N1463      C1467   1.344       .  A
N1463     Cu1471   2.071       .  S
N1464      C1465   1.347       .  A
N1464     Cu1470   2.077       .  S
C1465      C1466   1.384       .  A
C1465      H1468   1.082       .  S
C1466      C1467   1.381       .  A
C1466      C1745   1.468       .  S
C1467      H1469   1.082       .  S
Cu1470     N1473   2.077       .  S
Cu1471     N1481   2.071       .  S
Cu1472     N1474   2.076       .  S
Cu1472     N1480   2.076       .  S
N1473      N1474   1.323       .  A
N1473      C1477   1.346       .  A
N1474      C1475   1.345       .  A
C1475      C1476   1.382       .  A
C1475      H1478   1.082       .  S
C1476      C1477   1.382       .  A
C1476      C1718   1.467       .  S
C1477      H1479   1.082       .  S
N1480      N1481   1.322       .  A
N1480      C1484   1.346       .  A
N1481      C1482   1.344       .  A
C1482      C1483   1.383       .  A
C1482      H1485   1.082       .  S
C1483      C1484   1.385       .  A
C1483      C1982   1.479       .  S
C1484      H1486   1.082       .  S
N1487      N1488   1.323       .  A
N1487      C1491   1.346       .  A
N1487     Cu1495   2.083       .  S
N1488      C1489   1.345       .  A
N1488     Cu1494   2.066       .  S
C1489      C1490   1.380       .  A
C1489      H1492   1.082       .  S
C1490      C1491   1.383       .  A
C1490      C1761   1.466       .  S
C1491      H1493   1.082       .  S
Cu1494     N1497   2.065   1_655  S
Cu1495     N1505   2.084       .  S
Cu1496     N1498   2.085       .  S
Cu1496     N1504   2.086   1_455  S
N1497      N1498   1.322       .  A
N1497      C1501   1.345       .  A
N1498      C1499   1.347       .  A
C1499      C1500   1.384       .  A
C1499      H1502   1.082       .  S
C1500      C1501   1.381       .  A
C1500      C1678   1.468       .  S
C1501      H1503   1.082       .  S
N1504      N1505   1.323       .  A
N1504      C1508   1.347   1_655  A
N1505      C1506   1.348       .  A
C1506      C1507   1.386       .  A
C1506      H1509   1.082       .  S
C1507      C1508   1.387   1_655  A
C1507      C1941   1.488       .  S
C1508      H1510   1.082       .  S
N1511      N1512   1.322       .  A
N1511      C1515   1.347       .  A
N1511     Cu1519   2.080       .  S
N1512      C1513   1.344       .  A
N1512     Cu1518   2.073       .  S
C1513      C1514   1.382       .  A
C1513      H1516   1.082       .  S
C1514      C1515   1.384       .  A
C1514      C1690   1.469       .  S
C1515      H1517   1.082       .  S
Cu1518     N1521   2.073       .  S
Cu1519     N1529   2.081       .  S
Cu1520     N1522   2.082       .  S
Cu1520     N1528   2.083       .  S
N1521      N1522   1.323       .  A
N1521      C1525   1.346       .  A
N1522      C1523   1.346       .  A
C1523      C1524   1.383       .  A
C1523      H1526   1.082       .  S
C1524      C1525   1.383       .  A
C1524      C1773   1.470       .  S
C1525      H1527   1.082       .  S
N1528      N1529   1.323       .  A
N1528      C1532   1.348       .  A
N1529      C1530   1.345       .  A
C1530      C1531   1.385       .  A
C1530      H1533   1.081       .  S
C1531      C1532   1.385       .  A
C1531      C1918   1.484       .  S
C1532      H1534   1.082       .  S
N1535      N1536   1.322       .  A
N1535      C1539   1.345       .  A
N1535     Cu1543   2.072       .  S
N1536      C1537   1.347       .  A
N1536     Cu1542   2.080       .  S
C1537      C1538   1.384       .  A
C1537      H1540   1.082       .  S
C1538      C1539   1.381       .  A
C1538      C1759   1.468       .  S
C1539      H1541   1.082       .  S
Cu1542     N1545   2.080   1_655  S
Cu1543     N1553   2.072       .  S
Cu1544     N1546   2.077       .  S
Cu1544     N1552   2.077   1_455  S
N1545      N1546   1.323       .  A
N1545      C1549   1.346       .  A
N1546      C1547   1.346       .  A
C1547      C1548   1.383       .  A
C1547      H1550   1.082       .  S
C1548      C1549   1.383       .  A
C1548      C1676   1.469       .  S
C1549      H1551   1.082       .  S
N1552      N1553   1.322       .  A
N1552      C1556   1.344   1_655  A
N1553      C1554   1.345       .  A
C1554      C1555   1.386       .  A
C1554      H1557   1.080       .  S
C1555      C1556   1.386   1_655  A
C1555      C1877   1.484       .  S
C1556      H1558   1.082       .  S
N1559      C1564   1.353       .  A
N1559      C1563   1.351       .  A
N1559      H1591   1.037       .  S
N1560      C1567   1.349       .  A
N1560      C1568   1.351       .  A
N1561      C1566   1.352       .  A
N1561      C1565   1.353       .  A
N1561      H1592   1.038       .  S
N1562      C1569   1.351       .  A
N1562      C1570   1.349       .  A
C1563      C1571   1.387       .  A
C1563      C1579   1.413       .  A
C1564      C1580   1.415       .  A
C1564      C1572   1.387       .  A
C1565      C1573   1.386       .  A
C1565      C1582   1.413   1_455  A
C1566      C1581   1.415       .  A
C1566      C1574   1.388       .  A
C1567      C1579   1.410       .  A
C1567      C1575   1.387       .  A
C1568      C1582   1.410       .  A
C1568      C1576   1.386       .  A
C1569      C1577   1.386       .  A
C1569      C1580   1.412   1_455  A
C1570      C1578   1.386       .  A
C1570      C1581   1.412       .  A
C1571      C1572   1.375       .  A
C1571      H1583   1.082       .  S
C1572      H1584   1.082       .  S
C1573      C1574   1.375       .  A
C1573      H1585   1.082       .  S
C1574      H1586   1.082       .  S
C1575      C1576   1.371       .  A
C1575      H1587   1.082       .  S
C1576      H1588   1.082       .  S
C1577      C1578   1.374       .  A
C1577      H1589   1.082       .  S
C1578      H1590   1.082       .  S
C1579      C1854   1.479       .  S
C1580      C1886   1.486       .  S
C1581      C1781   1.483       .  S
C1582      C1822   1.485       .  S
N1593      N1594   1.323       .  A
N1593      C1597   1.345       .  A
N1593     Cu1601   2.073       .  S
N1594      C1595   1.347       .  A
N1594     Cu1600   2.087       .  S
C1595      C1596   1.385       .  A
C1595      H1598   1.082       .  S
C1596      C1597   1.382       .  A
C1596      C1692   1.470       .  S
C1597      H1599   1.082       .  S
Cu1600     N1603   2.087       .  S
Cu1601     N1611   2.072       .  S
Cu1602     N1604   2.064       .  S
Cu1602     N1610   2.064       .  S
N1603      N1604   1.322       .  A
N1603      C1607   1.346       .  A
N1604      C1605   1.345       .  A
C1605      C1606   1.381       .  A
C1605      H1608   1.082       .  S
C1606      C1607   1.385       .  A
C1606      C1775   1.470       .  S
C1607      H1609   1.082       .  S
N1610      N1611   1.321       .  A
N1610      C1614   1.343       .  A
N1611      C1612   1.344       .  A
C1612      C1613   1.386       .  A
C1612      H1615   1.082       .  S
C1613      C1614   1.384       .  A
C1613      C1845   1.481       .  S
C1614      H1616   1.079       .  S
N1617      N1618   1.323       .  A
N1617      C1621   1.348       .  A
N1617     Cu1625   2.086       .  S
N1618      C1619   1.346       .  A
N1618     Cu1624   2.078   1_455  S
C1619      C1620   1.383       .  A
C1619      H1622   1.082       .  S
C1620      C1621   1.385       .  A
C1620      C1731   1.473       .  S
C1621      H1623   1.082       .  S
Cu1624     N1627   2.077       .  S
Cu1625     N1635   2.086       .  S
Cu1626     N1628   2.068       .  S
Cu1626     N1634   2.069       .  S
N1627      N1628   1.322       .  A
N1627      C1631   1.346       .  A
N1628      C1629   1.344       .  A
C1629      C1630   1.381       .  A
C1629      H1632   1.082       .  S
C1630      C1631   1.383       .  A
C1630      C1703   1.467       .  S
C1631      H1633   1.082       .  S
N1634      N1635   1.322   1_655  A
N1634      C1638   1.344       .  A
N1635      C1636   1.346       .  A
C1636      C1637   1.387   1_455  A
C1636      H1639   1.080       .  S
C1637      C1638   1.384       .  A
C1637      C1813   1.484       .  S
C1638      H1640   1.082       .  S
N1641      N1642   1.322       .  A
N1641      C1645   1.346       .  A
N1641     Cu1649   2.076       .  S
N1642      C1643   1.344       .  A
N1642     Cu1648   2.068       .  S
C1643      C1644   1.381       .  A
C1643      H1646   1.082       .  S
C1644      C1645   1.383       .  A
C1644      C1720   1.466       .  S
C1645      H1647   1.082       .  S
Cu1648     N1651   2.068       .  S
Cu1649     N1659   2.077       .  S
Cu1650     N1652   2.073       .  S
Cu1650     N1658   2.073       .  S
N1651      N1652   1.322       .  A
N1651      C1655   1.345       .  A
N1652      C1653   1.346       .  A
C1653      C1654   1.383       .  A
C1653      H1656   1.082       .  S
C1654      C1655   1.382       .  A
C1654      C1747   1.467       .  S
C1655      H1657   1.082       .  S
N1658      N1659   1.323       .  A
N1658      C1662   1.345       .  A
N1659      C1660   1.345       .  A
C1660      C1661   1.384       .  A
C1660      H1663   1.082       .  S
C1661      C1662   1.382       .  A
C1661      C1790   1.477       .  S
C1662      H1664   1.082       .  S
O1665     Cu1673   2.016       .  S
O1665      C1675   1.278       .  A
O1666      C1676   1.278       .  A
O1667      C1677   1.278       .  A
O1668     Cu1673   2.012       .  S
O1668      C1678   1.278       .  A
O1669     Cu1674   2.010       .  S
O1669      C1678   1.277       .  A
O1670      C1677   1.277       .  A
O1671      C1676   1.278       .  A
O1672     Cu1674   2.012       .  S
O1672      C1675   1.278       .  A
Cu1673    Cu1674   2.376       .  S
O1679      C1689   1.277       .  A
O1680     Cu1687   2.015       .  S
O1680      C1690   1.278       .  A
O1681     Cu1687   2.014       .  S
O1681      C1691   1.278       .  A
O1682      C1692   1.278       .  A
O1683      C1692   1.277       .  A
O1684     Cu1688   2.016       .  S
O1684      C1691   1.278       .  A
O1685     Cu1688   2.010       .  S
O1685      C1690   1.278       .  A
O1686      C1689   1.277       .  A
Cu1687    Cu1688   2.376       .  S
O1693      C1703   1.278       .  A
O1694     Cu1701   2.014       .  S
O1694      C1704   1.278       .  A
O1695     Cu1701   2.006       .  S
O1695      C1705   1.277       .  A
O1696      C1706   1.277       .  A
O1697      C1706   1.277       .  A
O1698     Cu1702   2.006       .  S
O1698      C1705   1.277       .  A
O1699     Cu1702   2.003       .  S
O1699      C1704   1.277       .  A
O1700      C1703   1.277       .  A
Cu1701    Cu1702   2.378       .  S
O1707      C1717   1.277       .  A
O1708     Cu1715   2.008   1_545  S
O1708      C1718   1.277       .  A
O1709     Cu1715   2.007       .  S
O1709      C1719   1.278       .  A
O1710      C1720   1.277       .  A
O1711      C1720   1.278       .  A
O1712     Cu1716   2.014   1_556  S
O1712      C1719   1.277   1_545  A
O1713     Cu1716   2.011   1_556  S
O1713      C1718   1.278       .  A
O1714      C1717   1.278   1_545  A
Cu1715    Cu1716   2.377   1_566  S
O1721     Cu1729   2.016       .  S
O1721      C1731   1.278       .  A
O1722     Cu1729   2.013       .  S
O1722      C1732   1.278       .  A
O1723     Cu1729   2.008       .  S
O1723      C1733   1.277       .  A
O1724     Cu1729   2.011       .  S
O1724      C1734   1.277       .  A
O1725     Cu1730   2.009       .  S
O1725      C1734   1.277       .  A
O1726     Cu1730   2.006       .  S
O1726      C1733   1.277       .  A
O1727     Cu1730   2.020       .  S
O1727      C1732   1.278       .  A
O1728     Cu1730   2.019       .  S
O1728      C1731   1.278       .  A
Cu1729    Cu1730   2.376       .  S
O1735     Cu1743   2.009       .  S
O1735      C1745   1.277       .  A
O1736     Cu1743   2.012       .  S
O1736      C1746   1.277       .  A
O1737     Cu1743   2.011       .  S
O1737      C1747   1.277       .  A
O1738     Cu1743   2.018       .  S
O1738      C1748   1.278       .  A
O1739     Cu1744   2.013       .  S
O1739      C1748   1.278       .  A
O1740     Cu1744   2.011       .  S
O1740      C1747   1.278       .  A
O1741     Cu1744   2.011       .  S
O1741      C1746   1.278       .  A
O1742     Cu1744   2.014       .  S
O1742      C1745   1.278       .  A
Cu1743    Cu1744   2.376       .  S
O1749     Cu1757   2.010       .  S
O1749      C1759   1.277       .  A
O1750     Cu1757   2.007       .  S
O1750      C1760   1.277       .  A
O1751     Cu1757   2.012       .  S
O1751      C1761   1.278       .  A
O1752     Cu1757   2.011       .  S
O1752      C1762   1.278       .  A
O1753     Cu1758   2.007       .  S
O1753      C1762   1.277       .  A
O1754     Cu1758   2.006       .  S
O1754      C1761   1.277       .  A
O1755     Cu1758   2.017       .  S
O1755      C1760   1.278       .  A
O1756     Cu1758   2.015       .  S
O1756      C1759   1.278       .  A
Cu1757    Cu1758   2.377       .  S
O1763     Cu1771   2.010   1_545  S
O1763      C1773   1.277       .  A
O1764     Cu1771   2.010       .  S
O1764      C1774   1.277       .  A
O1765     Cu1771   2.021   1_545  S
O1765      C1775   1.279       .  A
O1766     Cu1771   2.023       .  S
O1766      C1776   1.279       .  A
O1767     Cu1772   2.006   1_565  S
O1767      C1776   1.277       .  A
O1768     Cu1772   2.007       .  S
O1768      C1775   1.276       .  A
O1769     Cu1772   2.016   1_565  S
O1769      C1774   1.279       .  A
O1770     Cu1772   2.017       .  S
O1770      C1773   1.279       .  A
Cu1771    Cu1772   2.376   1_565  S
C1777      C1778   1.401       .  A
C1777      C1782   1.401       .  A
C1777      H1787   1.084       .  S
C1778      C1779   1.411       .  A
C1778      C1783   1.479       .  S
C1779      C1780   1.403       .  A
C1779      C1784   1.506       .  S
C1780      C1781   1.402       .  A
C1780      H1785   1.084       .  S
C1781      C1782   1.414       .  A
C1782      C1786   1.507       .  S
C1783      C1788   1.410       .  A
C1783      C1792   1.400       .  A
C1784      H1800   1.110       .  S
C1784      H1801   1.110       .  S
C1784      H1802   1.111       .  S
C1786      H1797   1.110       .  S
C1786      H1798   1.110       .  S
C1786      H1799   1.108       .  S
C1788      C1789   1.403       .  A
C1788      C1793   1.507       .  S
C1789      C1790   1.404       .  A
C1789      H1794   1.084       .  S
C1790      C1791   1.416       .  A
C1791      C1792   1.402       .  A
C1791      C1795   1.508       .  S
C1792      H1796   1.085       .  S
C1793      H1803   1.111       .  S
C1793      H1804   1.110       .  S
C1793      H1805   1.110       .  S
C1795      H1806   1.111       .  S
C1795      H1807   1.107       .  S
C1795      H1808   1.110       .  S
C1809      C1810   1.400   1_455  A
C1809      C1814   1.405       .  A
C1809      H1819   1.084       .  S
C1810      C1811   1.410       .  A
C1810      C1815   1.480       .  S
C1811      C1812   1.404       .  A
C1811      C1816   1.507       .  S
C1812      C1813   1.406       .  A
C1812      H1817   1.084       .  S
C1813      C1814   1.417   1_655  A
C1814      C1818   1.507       .  S
C1815      C1820   1.412       .  A
C1815      C1824   1.401       .  A
C1816      H1832   1.110       .  S
C1816      H1833   1.109       .  S
C1816      H1834   1.111       .  S
C1818      H1829   1.107       .  S
C1818      H1830   1.111       .  S
C1818      H1831   1.110       .  S
C1820      C1821   1.403       .  A
C1820      C1825   1.507       .  S
C1821      C1822   1.402   1_565  A
C1821      H1826   1.084       .  S
C1822      C1823   1.414   1_545  A
C1823      C1824   1.403       .  A
C1823      C1827   1.507   1_655  S
C1824      H1828   1.084   1_655  S
C1825      H1835   1.111       .  S
C1825      H1836   1.110   1_655  S
C1825      H1837   1.109       .  S
C1827      H1838   1.110       .  S
C1827      H1839   1.108   1_565  S
C1827      H1840   1.110   1_455  S
C1841      C1842   1.399       .  A
C1841      C1846   1.402       .  A
C1841      H1851   1.084       .  S
C1842      C1843   1.410       .  A
C1842      C1847   1.477       .  S
C1843      C1844   1.401       .  A
C1843      C1848   1.507       .  S
C1844      C1845   1.406       .  A
C1844      H1849   1.084       .  S
C1845      C1846   1.418       .  A
C1846      C1850   1.507       .  S
C1847      C1852   1.412       .  A
C1847      C1856   1.401       .  A
C1848      H1864   1.109       .  S
C1848      H1865   1.110       .  S
C1848      H1866   1.111       .  S
C1850      H1861   1.107       .  S
C1850      H1862   1.111       .  S
C1850      H1863   1.110       .  S
C1852      C1853   1.401       .  A
C1852      C1857   1.507       .  S
C1853      C1854   1.402       .  A
C1853      H1858   1.084       .  S
C1854      C1855   1.412       .  A
C1855      C1856   1.398       .  A
C1855      C1859   1.507       .  S
C1856      H1860   1.085       .  S
C1857      H1867   1.111       .  S
C1857      H1868   1.109       .  S
C1857      H1869   1.110       .  S
C1859      H1870   1.110       .  S
C1859      H1871   1.108       .  S
C1859      H1872   1.110       .  S
C1873      C1874   1.400       .  A
C1873      C1878   1.405       .  A
C1873      H1883   1.084       .  S
C1874      C1875   1.409   1_655  A
C1874      C1879   1.479       .  S
C1875      C1876   1.403       .  A
C1875      C1880   1.506       .  S
C1876      C1877   1.406   1_455  A
C1876      H1881   1.084       .  S
C1877      C1878   1.419       .  A
C1878      C1882   1.507       .  S
C1879      C1884   1.410       .  A
C1879      C1888   1.401       .  A
C1880      H1896   1.110       .  S
C1880      H1897   1.110       .  S
C1880      H1898   1.111       .  S
C1882      H1893   1.111       .  S
C1882      H1894   1.110       .  S
C1882      H1895   1.107       .  S
C1884      C1885   1.403       .  A
C1884      C1889   1.506   1_655  S
C1885      C1886   1.403       .  A
C1885      H1890   1.084   1_655  S
C1886      C1887   1.414       .  A
C1887      C1888   1.403       .  A
C1887      C1891   1.507       .  S
C1888      H1892   1.084       .  S
C1889      H1899   1.111       .  S
C1889      H1900   1.110   1_455  S
C1889      H1901   1.110       .  S
C1891      H1902   1.110       .  S
C1891      H1903   1.108       .  S
C1891      H1904   1.110   1_655  S
C1905      C1906   1.402       .  A
C1905      C1910   1.405       .  A
C1905      H1915   1.084       .  S
C1906      C1907   1.411       .  A
C1906      C1911   1.484       .  S
C1907      C1908   1.405       .  A
C1907      C1912   1.506       .  S
C1908      C1909   1.403       .  A
C1908      H1913   1.084       .  S
C1909      C1910   1.415       .  A
C1910      C1914   1.507       .  S
C1911      C1916   1.412       .  A
C1911      C1920   1.400       .  A
C1912      H1928   1.110       .  S
C1912      H1929   1.109       .  S
C1912      H1930   1.111       .  S
C1914      H1925   1.110       .  S
C1914      H1926   1.110       .  S
C1914      H1927   1.108       .  S
C1916      C1917   1.407       .  A
C1916      C1921   1.506       .  S
C1917      C1918   1.405       .  A
C1917      H1922   1.084       .  S
C1918      C1919   1.416       .  A
C1919      C1920   1.404       .  A
C1919      C1923   1.507       .  S
C1920      H1924   1.084       .  S
C1921      H1931   1.111       .  S
C1921      H1932   1.110       .  S
C1921      H1933   1.109       .  S
C1923      H1934   1.107       .  S
C1923      H1935   1.110       .  S
C1923      H1936   1.111       .  S
C1937      C1938   1.402   1_455  A
C1937      C1942   1.406       .  A
C1937      H1947   1.084       .  S
C1938      C1939   1.413       .  A
C1938      C1943   1.491       .  S
C1939      C1940   1.407       .  A
C1939      C1944   1.506       .  S
C1940      C1941   1.405       .  A
C1940      H1945   1.084       .  S
C1941      C1942   1.419   1_655  A
C1942      C1946   1.508       .  S
C1943      C1948   1.414   1_655  A
C1943      C1952   1.403       .  A
C1944      H1960   1.109       .  S
C1944      H1961   1.110       .  S
C1944      H1962   1.111       .  S
C1946      H1957   1.111       .  S
C1946      H1958   1.110       .  S
C1946      H1959   1.106       .  S
C1948      C1949   1.408       .  A
C1948      C1953   1.506       .  S
C1949      C1950   1.404   1_455  A
C1949      H1954   1.084       .  S
C1950      C1951   1.416       .  A
C1951      C1952   1.405       .  A
C1951      C1955   1.507       .  S
C1952      H1956   1.084       .  S
C1953      H1963   1.111       .  S
C1953      H1964   1.109       .  S
C1953      H1965   1.110   1_455  S
C1955      H1966   1.110       .  S
C1955      H1967   1.110       .  S
C1955      H1968   1.108       .  S
C1969      C1970   1.402       .  A
C1969      C1974   1.404       .  A
C1969      H1979   1.084       .  S
C1970      C1971   1.412       .  A
C1970      C1975   1.483       .  S
C1971      C1972   1.403       .  A
C1971      C1976   1.507       .  S
C1972      C1973   1.402       .  A
C1972      H1977   1.084       .  S
C1973      C1974   1.415       .  A
C1974      C1978   1.507       .  S
C1975      C1980   1.411       .  A
C1975      C1984   1.401       .  A
C1976      H1992   1.110       .  S
C1976      H1993   1.110       .  S
C1976      H1994   1.111       .  S
C1978      H1989   1.110       .  S
C1978      H1990   1.110       .  S
C1978      H1991   1.108       .  S
C1980      C1981   1.404       .  A
C1980      C1985   1.506       .  S
C1981      C1982   1.404       .  A
C1981      H1986   1.084       .  S
C1982      C1983   1.417       .  A
C1983      C1984   1.403       .  A
C1983      C1987   1.508       .  S
C1984      H1988   1.085       .  S
C1985      H1995   1.111       .  S
C1985      H1996   1.110       .  S
C1985      H1997   1.110       .  S
C1987      H1998   1.110       .  S
C1987      H1999   1.106       .  S
C1987      H2000   1.111       .  S
C2001      C2002   1.401       .  A
C2001      C2006   1.404       .  A
C2001      H2011   1.084       .  S
C2002      C2003   1.410   1_455  A
C2002      C2007   1.481       .  S
C2003      C2004   1.403       .  A
C2003      C2008   1.506       .  S
C2004      C2005   1.404   1_655  A
C2004      H2009   1.084       .  S
C2005      C2006   1.417       .  A
C2006      C2010   1.507       .  S
C2007      C2012   1.412       .  A
C2007      C2016   1.401   1_455  A
C2008      H2024   1.110       .  S
C2008      H2025   1.110       .  S
C2008      H2026   1.111       .  S
C2010      H2021   1.110       .  S
C2010      H2022   1.111       .  S
C2010      H2023   1.107       .  S
C2012      C2013   1.404       .  A
C2012      C2017   1.506       .  S
C2013      C2014   1.403       .  A
C2013      H2018   1.084       .  S
C2014      C2015   1.414   1_455  A
C2015      C2016   1.402       .  A
C2015      C2019   1.507       .  S
C2016      H2020   1.084       .  S
C2017      H2027   1.111       .  S
C2017      H2028   1.110       .  S
C2017      H2029   1.110   1_455  S
C2019      H2030   1.110   1_655  S
C2019      H2031   1.108   1_565  S
C2019      H2032   1.110       .  S
C2033      C2034   1.402       .  A
C2033      C2038   1.403       .  A
C2033      H2043   1.084       .  S
C2034      C2035   1.409       .  A
C2034      C2039   1.476       .  S
C2035      C2036   1.400       .  A
C2035      C2040   1.507       .  S
C2036      C2037   1.402       .  A
C2036      H2041   1.084       .  S
C2037      C2038   1.414       .  A
C2038      C2042   1.507       .  S
C2039      C2044   1.409       .  A
C2039      C2048   1.400       .  A
C2040      H2056   1.110       .  S
C2040      H2057   1.110       .  S
C2040      H2058   1.111       .  S
C2042      H2053   1.110       .  S
C2042      H2054   1.110       .  S
C2042      H2055   1.108       .  S
C2044      C2045   1.401       .  A
C2044      C2049   1.507       .  S
C2045      C2046   1.404       .  A
C2045      H2050   1.084       .  S
C2046      C2047   1.418       .  A
C2047      C2048   1.403       .  A
C2047      C2051   1.508       .  S
C2048      H2052   1.085       .  S
C2049      H2059   1.111       .  S
C2049      H2060   1.110       .  S
C2049      H2061   1.110       .  S
C2051      H2062   1.111       .  S
C2051      H2063   1.105       .  S
C2051      H2064   1.110       .  S
C2065      C2066   1.400       .  A
C2065      C2070   1.406       .  A
C2065      H2075   1.084       .  S
C2066      C2067   1.409       .  A
C2066      C2071   1.483       .  S
C2067      C2068   1.405       .  A
C2067      C2072   1.507       .  S
C2068      C2069   1.408       .  A
C2068      H2073   1.084       .  S
C2069      C2070   1.420       .  A
C2070      C2074   1.507       .  S
C2071      C2076   1.411       .  A
C2071      C2080   1.402       .  A
C2072      H2088   1.110       .  S
C2072      H2089   1.109       .  S
C2072      H2090   1.111       .  S
C2074      H2085   1.111       .  S
C2074      H2086   1.110       .  S
C2074      H2087   1.107       .  S
C2076      C2077   1.404       .  A
C2076      C2081   1.506       .  S
C2077      C2078   1.403       .  A
C2077      H2082   1.084       .  S
C2078      C2079   1.415       .  A
C2079      C2080   1.404       .  A
C2079      C2083   1.507       .  S
C2080      H2084   1.084       .  S
C2081      H2091   1.111       .  S
C2081      H2092   1.110       .  S
C2081      H2093   1.109       .  S
C2083      H2094   1.110       .  S
C2083      H2095   1.110       .  S
C2083      H2096   1.108       .  S
C2097      C2098   1.402       .  A
C2097      C2102   1.404       .  A
C2097      H2107   1.084       .  S
C2098      C2099   1.412       .  A
C2098      C2103   1.484       .  S
C2099      C2100   1.404       .  A
C2099      C2104   1.506       .  S
C2100      C2101   1.403       .  A
C2100      H2105   1.084       .  S
C2101      C2102   1.415       .  A
C2102      C2106   1.507       .  S
C2103      C2108   1.411       .  A
C2103      C2112   1.400       .  A
C2104      H2120   1.110       .  S
C2104      H2121   1.110       .  S
C2104      H2122   1.111       .  S
C2106      H2117   1.110       .  S
C2106      H2118   1.110       .  S
C2106      H2119   1.108       .  S
C2108      C2109   1.406       .  A
C2108      C2113   1.506       .  S
C2109      C2110   1.407       .  A
C2109      H2114   1.084       .  S
C2110      C2111   1.417       .  A
C2111      C2112   1.404       .  A
C2111      C2115   1.507       .  S
C2112      H2116   1.084       .  S
C2113      H2123   1.111       .  S
C2113      H2124   1.110       .  S
C2113      H2125   1.110       .  S
C2115      H2126   1.110       .  S
C2115      H2127   1.107       .  S
C2115      H2128   1.111       .  S
C2129      C2130   1.401       .  A
C2129      C2134   1.407       .  A
C2129      H2139   1.084       .  S
C2130      C2131   1.409       .  A
C2130      C2135   1.483       .  S
C2131      C2132   1.403       .  A
C2131      C2136   1.506       .  S
C2132      C2133   1.405       .  A
C2132      H2137   1.084       .  S
C2133      C2134   1.419       .  A
C2134      C2138   1.507       .  S
C2135      C2140   1.411       .  A
C2135      C2144   1.401       .  A
C2136      H2152   1.110       .  S
C2136      H2153   1.110       .  S
C2136      H2154   1.111       .  S
C2138      H2149   1.107       .  S
C2138      H2150   1.111       .  S
C2138      H2151   1.110       .  S
C2140      C2141   1.406       .  A
C2140      C2145   1.506       .  S
C2141      C2142   1.404       .  A
C2141      H2146   1.084       .  S
C2142      C2143   1.416       .  A
C2143      C2144   1.403       .  A
C2143      C2147   1.507       .  S
C2144      H2148   1.084       .  S
C2145      H2155   1.111       .  S
C2145      H2156   1.110       .  S
C2145      H2157   1.110       .  S
C2147      H2158   1.110       .  S
C2147      H2159   1.108       .  S
C2147      H2160   1.110       .  S
C2161      C2162   1.401       .  A
C2161      C2166   1.401       .  A
C2161      H2171   1.084       .  S
C2162      C2163   1.411       .  A
C2162      C2167   1.477       .  S
C2163      C2164   1.402       .  A
C2163      C2168   1.506       .  S
C2164      C2165   1.402       .  A
C2164      H2169   1.084       .  S
C2165      C2166   1.414       .  A
C2166      C2170   1.507       .  S
C2167      C2172   1.409       .  A
C2167      C2176   1.400       .  A
C2168      H2184   1.110       .  S
C2168      H2185   1.110       .  S
C2168      H2186   1.111       .  S
C2170      H2181   1.110       .  S
C2170      H2182   1.110       .  S
C2170      H2183   1.108       .  S
C2172      C2173   1.401       .  A
C2172      C2177   1.507       .  S
C2173      C2174   1.405       .  A
C2173      H2178   1.084       .  S
C2174      C2175   1.418       .  A
C2175      C2176   1.403       .  A
C2175      C2179   1.508       .  S
C2176      H2180   1.085       .  S
C2177      H2187   1.111       .  S
C2177      H2188   1.110       .  S
C2177      H2189   1.110       .  S
C2179      H2190   1.110       .  S
C2179      H2191   1.105       .  S
C2179      H2192   1.111       .  S
C2193      C2194   1.401       .  A
C2193      C2198   1.402       .  A
C2193      H2203   1.084       .  S
C2194      C2195   1.412       .  A
C2194      C2199   1.482       .  S
C2195      C2196   1.405       .  A
C2195      C2200   1.506       .  S
C2196      C2197   1.403       .  A
C2196      H2201   1.084       .  S
C2197      C2198   1.414       .  A
C2198      C2202   1.508       .  S
C2199      C2204   1.411       .  A
C2199      C2208   1.402       .  A
C2200      H2216   1.110       .  S
C2200      H2217   1.110       .  S
C2200      H2218   1.111       .  S
C2202      H2213   1.110       .  S
C2202      H2214   1.110       .  S
C2202      H2215   1.108       .  S
C2204      C2205   1.404       .  A
C2204      C2209   1.506       .  S
C2205      C2206   1.403       .  A
C2205      H2210   1.084       .  S
C2206      C2207   1.414       .  A
C2207      C2208   1.406       .  A
C2207      C2211   1.506       .  S
C2208      H2212   1.084       .  S
C2209      H2219   1.111       .  S
C2209      H2220   1.110       .  S
C2209      H2221   1.110       .  S
C2211      H2222   1.109       .  S
C2211      H2223   1.110       .  S
C2211      H2224   1.111       .  S
C2225      C2226   1.402       .  A
C2225      C2230   1.401       .  A
C2225      H2235   1.084       .  S
C2226      C2227   1.413       .  A
C2226      C2231   1.482       .  S
C2227      C2228   1.403       .  A
C2227      C2232   1.506       .  S
C2228      C2229   1.402       .  A
C2228      H2233   1.084       .  S
C2229      C2230   1.414       .  A
C2230      C2234   1.507       .  S
C2231      C2236   1.411       .  A
C2231      C2240   1.401       .  A
C2232      H2248   1.109       .  S
C2232      H2249   1.110       .  S
C2232      H2250   1.111       .  S
C2234      H2245   1.110       .  S
C2234      H2246   1.110       .  S
C2234      H2247   1.108       .  S
C2236      C2237   1.404       .  A
C2236      C2241   1.507       .  S
C2237      C2238   1.405       .  A
C2237      H2242   1.084       .  S
C2238      C2239   1.417       .  A
C2239      C2240   1.402       .  A
C2239      C2243   1.508       .  S
C2240      H2244   1.085       .  S
C2241      H2251   1.111       .  S
C2241      H2252   1.109       .  S
C2241      H2253   1.110       .  S
C2243      H2254   1.110       .  S
C2243      H2255   1.106       .  S
C2243      H2256   1.111       .  S
C2257      C2258   1.401       .  A
C2257      C2262   1.405       .  A
C2257      H2267   1.084       .  S
C2258      C2259   1.411       .  A
C2258      C2263   1.482       .  S
C2259      C2260   1.404       .  A
C2259      C2264   1.506       .  S
C2260      C2261   1.403       .  A
C2260      H2265   1.084       .  S
C2261      C2262   1.416       .  A
C2262      C2266   1.507       .  S
C2263      C2268   1.411       .  A
C2263      C2272   1.401       .  A
C2264      H2280   1.110       .  S
C2264      H2281   1.110       .  S
C2264      H2282   1.111       .  S
C2266      H2277   1.110       .  S
C2266      H2278   1.111       .  S
C2266      H2279   1.108       .  S
C2268      C2269   1.405       .  A
C2268      C2273   1.506       .  S
C2269      C2270   1.404       .  A
C2269      H2274   1.084       .  S
C2270      C2271   1.415       .  A
C2271      C2272   1.403       .  A
C2271      C2275   1.507       .  S
C2272      H2276   1.084       .  S
C2273      H2283   1.111       .  S
C2273      H2284   1.110       .  S
C2273      H2285   1.110       .  S
C2275      H2286   1.110       .  S
C2275      H2287   1.108       .  S
C2275      H2288   1.110       .  S
