geometry optimzed in LAMMPS
_audit_creation_date              2020-11-30 
_audit_creation_method            'lammps2cif' 
_symmetry_space_group_name_H-M    'P1' 
_symmetry_Int_Tables_number       1 
_symmetry_cell_setting            triclinic 
loop_ 
_symmetry_equiv_pos_as_xyz 
  x,y,z 
_cell_length_a                    47.77811508 
_cell_length_b                    47.845962435251046 
_cell_length_c                    39.34832397703346 
_cell_angle_alpha                 89.52886439754889 
_cell_angle_beta                  90.3386572112056 
_cell_angle_gamma                 119.19297889447695 
loop_ 
_atom_site_label 
_atom_site_type_symbol 
_atom_site_fract_x 
_atom_site_fract_y 
_atom_site_fract_z 
_atom_site_charge 
C1          C  0.51987220  0.43735055  0.10778909     0.04000
C2          C  0.50639231  0.45042797  0.08536679    -0.12100
C3          C  0.52555968  0.47991044  0.06872541     0.01500
C4          C  0.55888356  0.49597011  0.07554040    -0.10600
C5          C  0.57235068  0.48398324  0.09951569     0.04000
C6          C  0.55261794  0.45450085  0.11536852    -0.10100
H7          H  0.48073245  0.43736598  0.08174931     0.09600
H8          H  0.57486744  0.51790339  0.06237196     0.07200
H9          H  0.56267556  0.44484920  0.13374732     0.07000
C10         C  0.51481126  0.54008846  0.01322112     0.04000
C11         C  0.52706884  0.52700201  0.03718052    -0.12100
C12         C  0.51095208  0.49395649  0.04476469     0.01500
C13         C  0.48067009  0.47476278  0.02946904    -0.10600
C14         C  0.46681683  0.48819359  0.00780945     0.04000
C15         C  0.48460556  0.52063791  0.99884722    -0.10100
H16         H  0.54933463  0.54309562  0.04966684     0.09600
H17         H  0.46732735  0.44932496  0.03429411     0.07200
H18         H  0.47489708  0.53077441  0.98061593     0.07000
O19         O  0.56620417  0.49229399  0.54811309    -0.72000
O20         O  0.47768087  0.45544917  0.50923428    -0.73000
O21         O  0.53449086  0.51568613  0.50475360    -0.61600
O22         O  0.50945123  0.43225217  0.55295067    -0.70000
O23         O  0.49505366  0.44990515  0.59769187    -0.69600
O24         O  0.51886424  0.53215338  0.54955798    -0.60900
O25         O  0.46245846  0.47177878  0.55438677    -0.73400
O26         O  0.55140462  0.50987317  0.59262051    -0.72100
Cu27       Cu  0.52250632  0.47332786  0.52718528     1.04600
Cu28       Cu  0.50643537  0.49151273  0.57507228     1.04300
C29         C  0.57301195  0.50712145  0.57637691     0.94200
C30         C  0.45586153  0.45764093  0.52569945     0.93300
C31         C  0.53056087  0.53719264  0.51963444     0.85400
C32         C  0.49808093  0.42783523  0.58308276     0.91700
O33         O  0.15168838  0.78029917  0.92835808    -0.72000
O34         O  0.18752543  0.86929022  0.89027166    -0.73000
O35         O  0.12842402  0.81180525  0.88523124    -0.61600
O36         O  0.21121752  0.83801539  0.93371220    -0.70000
O37         O  0.22904985  0.82308013  0.88954235    -0.69600
O38         O  0.14672160  0.79844035  0.84005318    -0.60900
O39         O  0.20640428  0.85560084  0.84597344    -0.73400
O40         O  0.16906796  0.76610785  0.88313765    -0.72100
Cu41       Cu  0.16916086  0.82536696  0.91096438     1.04600
Cu42       Cu  0.18853145  0.81037153  0.86314715     1.04300
C43         C  0.15418439  0.75889725  0.91147767     0.94200
C44         C  0.20243386  0.87657481  0.86194687     0.93300
C45         C  0.12438626  0.80090600  0.85502434     0.85400
C46         C  0.23329124  0.83456677  0.91953768     0.91700
C47         C  0.56261814  0.03288006  0.10322086     0.04000
C48         C  0.54801546  0.00582731  0.08245265    -0.12100
C49         C  0.51810720  0.99652216  0.06695557     0.01500
C50         C  0.50252611  0.01440562  0.07422215    -0.10600
C51         C  0.51552105  0.03952177  0.09779633     0.04000
C52         C  0.54595981  0.04912489  0.11149302    -0.10100
H53         H  0.56034366  0.99221772  0.07882665     0.09600
H54         H  0.48002953  0.00884231  0.06216448     0.07200
H55         H  0.55661210  0.06909397  0.12893061     0.07000
C56         C  0.45574738  0.92499978  0.01647760     0.04000
C57         C  0.47514287  0.91442745  0.00072502    -0.12100
C58         C  0.50828334  0.93013330  0.00645039     0.01500
C59         C  0.52219229  0.95739954  0.02704488    -0.10600
C60         C  0.50319334  0.96809992  0.04388281     0.04000
C61         C  0.46976305  0.95110440  0.03871564    -0.10100
H62         H  0.46447948  0.89399289  0.98391815     0.09600
H63         H  0.54801391  0.97014573  0.02941938     0.07200
H64         H  0.45415785  0.95774988  0.05199137     0.07000
C65         C  0.95874777  0.42985630  0.10117444     0.04000
C66         C  0.98239630  0.44319835  0.07591359    -0.12100
C67         C  0.99768107  0.47629771  0.06836125     0.01500
C68         C  0.98745875  0.49537208  0.08566253    -0.10600
C69         C  0.96255406  0.48187343  0.10945125     0.04000
C70         C  0.94856993  0.44925755  0.11736868    -0.10100
H71         H  0.98849588  0.42740813  0.06221781     0.09600
H72         H  0.99859454  0.52083720  0.08090361     0.07200
H73         H  0.92989941  0.43904068  0.13645906     0.07000
C74         C  0.05641047  0.53320239  0.00190709     0.04000
C75         C  0.07303336  0.51694998  0.99338154    -0.12100
C76         C  0.06666058  0.48858335  0.01039588     0.01500
C77         C  0.04297086  0.47634182  0.03566615    -0.10600
C78         C  0.02408608  0.49078558  0.04266639     0.04000
C79         C  0.03106044  0.51932949  0.02521547    -0.10100
H80         H  0.09138720  0.52680678  0.97396718     0.09600
H81         H  0.03956612  0.45546439  0.04985875     0.07200
H82         H  0.01716687  0.53126397  0.02952568     0.07000
O83         O  0.84957643  0.19969987  0.22422529    -0.72000
O84         O  0.81929416  0.11396041  0.26912914    -0.73000
O85         O  0.87705762  0.17347961  0.26935998    -0.61600
O86         O  0.79172610  0.14024449  0.22423863    -0.70000
O87         O  0.80897879  0.12447044  0.18002556    -0.69600
O88         O  0.89442483  0.15769363  0.22539972    -0.60900
O89         O  0.83656260  0.09835990  0.22484890    -0.73400
O90         O  0.86702817  0.18386640  0.18043009    -0.72100
Cu91       Cu  0.83380082  0.15740043  0.24826914     1.04600
Cu92       Cu  0.85236589  0.14055889  0.20116567     1.04300
C93         C  0.86343101  0.20553889  0.19531827     0.94200
C94         C  0.82271290  0.09238793  0.25373613     0.93300
C95         C  0.89947685  0.17121984  0.25437668     0.85400
C96         C  0.78673643  0.12698888  0.19515117     0.91700
C97         C  0.23565563  0.81531200  0.43565876     0.04000
C98         C  0.22362139  0.82727047  0.41015525    -0.12100
C99         C  0.19079071  0.81129689  0.40101668     0.01500
C100        C  0.17089030  0.78140430  0.41674827    -0.10600
C101        C  0.18301145  0.76797119  0.44049816     0.04000
C102        C  0.21512569  0.78568341  0.45078573    -0.10100
H103        H  0.24056036  0.84928630  0.39770540     0.09600
H104        H  0.14532783  0.76774924  0.41078099     0.07200
H105        H  0.22404054  0.77643201  0.47079735     0.07000
C106        C  0.18407472  0.87225512  0.34201810     0.04000
C107        C  0.19544248  0.85868301  0.36645408    -0.12100
C108        C  0.17764548  0.82595267  0.37570636     0.01500
C109        C  0.14700054  0.80787070  0.36079866    -0.10600
C110        C  0.13448855  0.82180191  0.33820094     0.04000
C111        C  0.15329806  0.85385411  0.32852841    -0.10100
H112        H  0.21826622  0.87445007  0.37819968     0.09600
H113        H  0.13204470  0.78233802  0.36627889     0.07200
H114        H  0.14388724  0.86449250  0.31059216     0.07000
C115        C  0.23380293  0.37047347  0.42996178     0.04000
C116        C  0.21905904  0.34355693  0.40897347    -0.12100
C117        C  0.18892759  0.33433668  0.39395313     0.01500
C118        C  0.17383740  0.35262910  0.40133624    -0.10600
C119        C  0.18732277  0.37794457  0.42453542     0.04000
C120        C  0.21780276  0.38743172  0.43800271    -0.10100
H121        H  0.23133793  0.32995682  0.40495111     0.09600
H122        H  0.15115258  0.34717027  0.38983108     0.07200
H123        H  0.22863930  0.40731746  0.45553393     0.07000
C124        C  0.12433165  0.26336022  0.34479985     0.04000
C125        C  0.13937844  0.28936968  0.36693787    -0.12100
C126        C  0.17294409  0.30555321  0.37140532     0.01500
C127        C  0.19086237  0.29375983  0.35423586    -0.10600
C128        C  0.17578223  0.26675923  0.33323513     0.04000
C129        C  0.14264778  0.25214863  0.32807830    -0.10100
H130        H  0.12438552  0.29648943  0.38069558     0.09600
H131        H  0.21660858  0.30525574  0.35694362     0.07200
H132        H  0.13114354  0.23211389  0.31080838     0.07000
O133        O  0.39651293  0.14931223  0.22936596    -0.72000
O134        O  0.33640997  0.17636620  0.26979592    -0.73000
O135        O  0.33992360  0.11869215  0.26908959    -0.61600
O136        O  0.39305830  0.20690052  0.23073080    -0.70000
O137        O  0.36404115  0.19225909  0.18347283    -0.69600
O138        O  0.31033397  0.10399211  0.22231395    -0.60900
O139        O  0.30755591  0.16192319  0.22250982    -0.73400
O140        O  0.36684611  0.13443821  0.18258965    -0.72100
Cu141      Cu  0.36749142  0.16328426  0.25139832     1.04600
Cu142      Cu  0.33618918  0.14760220  0.20110318     1.04300
C143        C  0.39094572  0.13728190  0.19957783     0.94200
C144        C  0.31284953  0.17412844  0.25216771     0.93300
C145        C  0.31661956  0.09732314  0.25193684     0.85400
C146        C  0.38669162  0.21371661  0.20124864     0.91700
O147        O  0.97460378  0.43260156  0.55047386    -0.72000
O148        O  0.02721078  0.52300898  0.51575073    -0.73000
O149        O  0.03086919  0.46538550  0.51000403    -0.61600
O150        O  0.97129851  0.49017155  0.55597077    -0.70000
O151        O  0.00104961  0.50234481  0.60251494    -0.69600
O152        O  0.06109938  0.47888895  0.55634062    -0.60900
O153        O  0.05656526  0.53566971  0.56260580    -0.73400
O154        O  0.00522029  0.44538629  0.59634498    -0.72100
Cu155      Cu  0.99997002  0.47733957  0.53138024     1.04600
Cu156      Cu  0.03201570  0.49098201  0.58099558     1.04300
C157        C  0.98151122  0.42465817  0.57914325     0.94200
C158        C  0.05001754  0.54383990  0.53395121     0.93300
C159        C  0.05524180  0.46779650  0.52617002     0.85400
C160        C  0.97685970  0.50043425  0.58652109     0.91700
C161        C  0.79623365  0.59914410  0.67154444     0.04000
C162        C  0.81352203  0.58349319  0.66358915    -0.12100
C163        C  0.84420035  0.59418426  0.67707165     0.01500
C164        C  0.85661193  0.61952947  0.70033084    -0.10600
C165        C  0.84015307  0.63656349  0.70765914     0.04000
C166        C  0.80988045  0.62612433  0.69248442    -0.10100
H167        H  0.80332529  0.56345633  0.64620768     0.09600
H168        H  0.87924612  0.62567745  0.71241422     0.07200
H169        H  0.79650693  0.63862034  0.69659256     0.07000
C170        C  0.90120834  0.70594402  0.76121884     0.04000
C171        C  0.88786574  0.68186403  0.73666540    -0.12100
C172        C  0.85447622  0.66478582  0.73106973     0.01500
C173        C  0.83511708  0.67482585  0.74839312    -0.10600
C174        C  0.84872535  0.70105367  0.77053451     0.04000
C175        C  0.88154089  0.71554987  0.77787903    -0.10100
H176        H  0.90390049  0.67643060  0.72247152     0.09600
H177        H  0.80943575  0.66263113  0.74488343     0.07200
H178        H  0.89177043  0.73437591  0.79668548     0.07000
O179        O  0.72333829  0.80747881  0.89546932    -0.72000
O180        O  0.67074075  0.84541590  0.93112391    -0.73000
O181        O  0.66823948  0.78520530  0.93668367    -0.61600
O182        O  0.72631648  0.86810685  0.88991303    -0.70000
O183        O  0.69567141  0.85199660  0.84392185    -0.69600
O184        O  0.63746761  0.76850443  0.89083659    -0.60900
O185        O  0.63990821  0.82876746  0.88522110    -0.73400
O186        O  0.69270954  0.79115911  0.84949655    -0.72100
Cu187      Cu  0.69824489  0.82717573  0.91483733     1.04600
Cu188      Cu  0.66540557  0.80958715  0.86572393     1.04300
C189        C  0.71602386  0.79278612  0.86706099     0.94200
C190        C  0.64687194  0.84293444  0.91391151     0.93300
C191        C  0.64369336  0.76360825  0.92124517     0.85400
C192        C  0.72032440  0.87331725  0.85954179     0.91700
C193        C  0.79509130  0.15437734  0.68300558     0.04000
C194        C  0.80844314  0.14369905  0.70841532    -0.12100
C195        C  0.84178505  0.15951561  0.71463788     0.01500
C196        C  0.86099173  0.18881106  0.69755474    -0.10600
C197        C  0.84744063  0.20149219  0.67444185     0.04000
C198        C  0.81481679  0.18330585  0.66614376    -0.10100
H199        H  0.79248211  0.12263167  0.72290492     0.09600
H200        H  0.88652328  0.20209073  0.70200173     0.07200
H201        H  0.80474221  0.19181953  0.64654297     0.07000
C202        C  0.89922496  0.14991912  0.77636670     0.04000
C203        C  0.88134335  0.11720456  0.78424079    -0.12100
C204        C  0.85147316  0.09804416  0.76893907     0.01500
C205        C  0.83988223  0.11175673  0.74494301    -0.10600
C206        C  0.85609156  0.14503886  0.73841775     0.04000
C207        C  0.88595102  0.16388259  0.75458429    -0.10100
H208        H  0.89064106  0.10670893  0.80252084     0.09600
H209        H  0.81788646  0.09603900  0.73174347     0.07200
H210        H  0.89931569  0.18943651  0.75035396     0.07000
O211        O  0.88655313  0.66808676  0.26935213    -0.72000
O212        O  0.80116195  0.60981495  0.22625382    -0.73000
O213        O  0.86204739  0.61314407  0.22827093    -0.61600
O214        O  0.82580144  0.66495180  0.26808331    -0.70000
O215        O  0.84080292  0.69651441  0.22261646    -0.69600
O216        O  0.87572216  0.64313673  0.18167093    -0.60900
O217        O  0.81547744  0.64143795  0.18097340    -0.73400
O218        O  0.90126534  0.69834709  0.22294663    -0.72100
Cu219      Cu  0.84335556  0.63795663  0.24958297     1.04600
Cu220      Cu  0.85879898  0.67095952  0.20045688     1.04300
C221        C  0.90775113  0.69199667  0.25261535     0.94200
C222        C  0.79481039  0.61636369  0.19656552     0.93300
C223        C  0.87473075  0.61986953  0.19877847     0.85400
C224        C  0.82735145  0.68882376  0.25176770     0.91700
C225        C  0.62511463  0.76395274  0.43704760     0.04000
C226        C  0.61352842  0.78292319  0.45138700    -0.12100
C227        C  0.62963285  0.81603479  0.44606719     0.01500
C228        C  0.65823235  0.83039132  0.42737013    -0.10600
C229        C  0.66969325  0.81168326  0.41121721     0.04000
C230        C  0.65202881  0.77812057  0.41574318    -0.10100
H231        H  0.59231843  0.77204065  0.46725650     0.09600
H232        H  0.67097169  0.85618394  0.42553104     0.07200
H233        H  0.65879070  0.76238081  0.40308108     0.07000
C234        C  0.73896648  0.87200572  0.35545792     0.04000
C235        C  0.75349794  0.85388760  0.34627464    -0.12100
C236        C  0.74196219  0.82282225  0.35903051     0.01500
C237        C  0.71585022  0.80993231  0.38140708    -0.10600
C238        C  0.69947941  0.82683845  0.38960079     0.04000
C239        C  0.71153751  0.85807408  0.37612760    -0.10100
H240        H  0.77332812  0.86369707  0.32851530     0.09600
H241        H  0.70856256  0.78645710  0.39189463     0.07200
H242        H  0.69973565  0.87193788  0.38105909     0.07000
O243        O  0.46341102  0.94095807  0.56475638    -0.72000
O244        O  0.54772227  0.99722654  0.61056118    -0.73000
O245        O  0.48800340  0.99599424  0.60562925    -0.61600
O246        O  0.52328516  0.94176547  0.56950513    -0.70000
O247        O  0.53991041  0.97224971  0.52332426    -0.69600
O248        O  0.50493587  0.02664716  0.55956925    -0.60900
O249        O  0.56452372  0.02764662  0.56443823    -0.73400
O250        O  0.48015475  0.97156328  0.51872978    -0.72100
Cu251      Cu  0.50504469  0.96788261  0.58918222     1.04600
Cu252      Cu  0.52299224  0.00054593  0.53989572     1.04300
C253        C  0.45805837  0.94777494  0.53476924     0.94200
C254        C  0.56954478  0.02149649  0.59484939     0.93300
C255        C  0.49075463  0.01986892  0.58826887     0.85400
C256        C  0.53745020  0.94852167  0.54077552     0.91700
C257        C  0.39592092  0.20274401  0.67322327     0.04000
C258        C  0.40690496  0.18304250  0.65962574    -0.12100
C259        C  0.39164210  0.15044125  0.66747667     0.01500
C260        C  0.36441895  0.13715567  0.68825060    -0.10600
C261        C  0.35300775  0.15647106  0.70292243     0.04000
C262        C  0.36973698  0.18969198  0.69561739    -0.10100
H263        H  0.42742742  0.19309704  0.64275062     0.09600
H264        H  0.35265137  0.11167731  0.69279818     0.07200
H265        H  0.36305299  0.20591168  0.70735754     0.07000
C266        C  0.28796946  0.09958721  0.76491759     0.04000
C267        C  0.31420937  0.11245462  0.74261222    -0.12100
C268        C  0.32438410  0.14222622  0.72610976     0.01500
C269        C  0.30693517  0.15839939  0.73220966    -0.10600
C270        C  0.28168270  0.14655826  0.75566900     0.04000
C271        C  0.27243035  0.11721868  0.77197863    -0.10100
H272        H  0.32645483  0.09887605  0.73865536     0.09600
H273        H  0.31264914  0.18038108  0.71890323     0.07200
H274        H  0.25323740  0.10815049  0.79049426     0.07000
O275        O  0.22158496  0.33293224  0.93162134    -0.72000
O276        O  0.13144789  0.27991591  0.89639664    -0.73000
O277        O  0.18925828  0.27728494  0.89106122    -0.61600
O278        O  0.16344543  0.33545585  0.93698737    -0.70000
O279        O  0.17710445  0.36628240  0.89113602    -0.69600
O280        O  0.20157147  0.30730861  0.84462965    -0.60900
O281        O  0.14426479  0.31089305  0.85067220    -0.73400
O282        O  0.23441549  0.36277310  0.88504630    -0.72100
Cu283      Cu  0.17603063  0.30538027  0.91565737     1.04600
Cu284      Cu  0.18979971  0.33787356  0.86630518     1.04300
C285        C  0.24241146  0.35623685  0.91381434     0.94200
C286        C  0.12358076  0.28695627  0.86776495     0.93300
C287        C  0.19938780  0.28290323  0.86047727     0.85400
C288        C  0.16593175  0.36003565  0.92134276     0.91700
C289        C  0.21690872  0.21484680  0.84213477    -0.13500
C290        C  0.22779161  0.22182548  0.80857978     0.16900
C291        C  0.22838472  0.24816845  0.79154845     0.03200
C292        C  0.21897314  0.26762796  0.80906215    -0.12000
C293        C  0.20868897  0.26121540  0.84309055    -0.03000
C294        C  0.20757536  0.23427451  0.85956497     0.02500
C295        C  0.24166960  0.20330645  0.79330264     0.09300
N296        N  0.23863846  0.25553691  0.75676042     0.65700
H297        H  0.21959325  0.28785661  0.79582036     0.18600
N298        N  0.19816172  0.22683807  0.89431623     0.76100
H299        H  0.21684891  0.19483405  0.85532920     0.10100
C300        C  0.27506230  0.21694716  0.78849978     0.03800
C301        C  0.28715252  0.19824632  0.77442088    -0.04900
C302        C  0.26678951  0.16622789  0.76530395    -0.23300
C303        C  0.23320121  0.15305023  0.76880713     0.13000
C304        C  0.22112431  0.17167546  0.78337431    -0.12500
N305        N  0.29705241  0.24919444  0.79879066     0.64700
H306        H  0.31289301  0.20830237  0.77225623     0.12600
N307        N  0.21116986  0.12133792  0.75706059     0.61300
H308        H  0.19547381  0.16172562  0.78641440     0.08700
O309        O  0.21907043  0.23819120  0.91749166    -0.40100
O310        O  0.16998405  0.20554813  0.90149902    -0.39300
O311        O  0.23082110  0.23338826  0.73539547    -0.39300
O312        O  0.25331550  0.28426897  0.74664017    -0.37000
O313        O  0.18455333  0.10491722  0.77173095    -0.37900
O314        O  0.21672623  0.11092120  0.72999185    -0.34100
O315        O  0.29311434  0.25995070  0.82648673    -0.35500
O316        O  0.32232318  0.26588367  0.78196181    -0.39800
C317        C  0.40188323  0.08242970  0.63212020    -0.13500
C318        C  0.43433203  0.09346710  0.63941934     0.16900
C319        C  0.45279242  0.12335492  0.65524382     0.03200
C320        C  0.43824860  0.14168589  0.66319771    -0.12000
C321        C  0.40575797  0.13078536  0.65590190    -0.03000
C322        C  0.38734227  0.10089788  0.63982571     0.02500
C323        C  0.44909865  0.07460975  0.62756447     0.09300
N324        N  0.48595889  0.13508591  0.66392363     0.65700
H325        H  0.45216311  0.16426596  0.67619207     0.18600
N326        N  0.35452079  0.08959267  0.62997763     0.76100
H327        H  0.38817321  0.05979849  0.61915692     0.10100
C328        C  0.43975976  0.04376554  0.64058447     0.03800
C329        C  0.45370747  0.02640708  0.62726191    -0.04900
C330        C  0.47692149  0.03930771  0.60144474    -0.23300
C331        C  0.48591633  0.07017429  0.58849361     0.13000
C332        C  0.47189201  0.08741173  0.60157736    -0.12500
N333        N  0.41658522  0.02998584  0.66743295     0.64700
H334        H  0.44643862  0.00270867  0.63734405     0.12600
N335        N  0.50948256  0.08458974  0.56239026     0.61300
H336        H  0.47880255  0.11100703  0.59135894     0.08700
O337        O  0.34586167  0.10878918  0.61810778    -0.40100
O338        O  0.33488237  0.05994661  0.62971008    -0.39300
O339        O  0.50547554  0.16475830  0.66310407    -0.39300
O340        O  0.49527568  0.11626797  0.67539021    -0.37000
O341        O  0.50091891  0.08659401  0.53247999    -0.37900
O342        O  0.53886980  0.09897748  0.57007505    -0.34100
O343        O  0.39667199  0.00041415  0.66747261    -0.35500
O344        O  0.41761000  0.04667433  0.69258985    -0.39800
C345        C  0.57346399  0.84887088  0.46484597    -0.13500
C346        C  0.59236399  0.87415814  0.48670785     0.16900
C347        C  0.62331428  0.87994728  0.49586866     0.03200
C348        C  0.63498169  0.86058021  0.48246902    -0.12000
C349        C  0.61638460  0.83574553  0.45989942    -0.03000
C350        C  0.58522851  0.82975708  0.45110898     0.02500
C351        C  0.57897604  0.89381602  0.50022956     0.09300
N352        N  0.64325691  0.90564389  0.51820285     0.65700
H353        H  0.65880973  0.86510101  0.48941948     0.18600
N354        N  0.56565036  0.80500043  0.42763481     0.76100
H355        H  0.54962821  0.84438145  0.45796487     0.10100
C356        C  0.57231677  0.91363633  0.47876681     0.03800
C357        C  0.55840936  0.93087073  0.49258695    -0.04900
C358        C  0.55125889  0.92901190  0.52741807    -0.23300
C359        C  0.55780450  0.90887365  0.54862265     0.13000
C360        C  0.57148799  0.89149299  0.53484858    -0.12500
N361        N  0.57996049  0.91691172  0.44316507     0.64700
H362        H  0.55351227  0.94614567  0.47596571     0.12600
N363        N  0.55131877  0.90620782  0.58426738     0.61300
H364        H  0.57635204  0.87606311  0.55128997     0.08700
O365        O  0.57653206  0.80374266  0.39886944    -0.40100
O366        O  0.53652180  0.78623373  0.43430737    -0.39300
O367        O  0.65785686  0.90084440  0.54243309    -0.39300
O368        O  0.64821556  0.93367127  0.51231445    -0.37000
O369        O  0.52813032  0.88104083  0.59617372    -0.37900
O370        O  0.57081473  0.92733881  0.60422771    -0.34100
O371        O  0.56151892  0.91952614  0.42182770    -0.35500
O372        O  0.60646477  0.92014825  0.43322655    -0.39800
C373        C  0.77833460  0.71418777  0.30640458    -0.13500
C374        C  0.79079002  0.74633591  0.29665033     0.16900
C375        C  0.81537684  0.75957175  0.27196520     0.03200
C376        C  0.82680397  0.74025364  0.25774921    -0.12000
C377        C  0.81379131  0.70785360  0.26692284    -0.03000
C378        C  0.78883097  0.69458734  0.29121815     0.02500
C379        C  0.77793371  0.76556438  0.31301997     0.09300
N380        N  0.82858975  0.79222285  0.26062190     0.65700
H381        H  0.84587112  0.75060459  0.23912409     0.18600
N382        N  0.77284563  0.66108977  0.29964159     0.76100
H383        H  0.75951342  0.70397798  0.32532285     0.10100
C384        C  0.74471242  0.75538611  0.31308774     0.03800
C385        C  0.73369189  0.77377238  0.33001869    -0.04900
C386        C  0.75497765  0.80249069  0.34612925    -0.23300
C387        C  0.78811449  0.81242252  0.34664677     0.13000
C388        C  0.79913739  0.79373915  0.33015174    -0.12500
N389        N  0.72202616  0.72728176  0.29507813     0.64700
H390        H  0.70836115  0.76646217  0.32907931     0.12600
N391        N  0.81063437  0.84077513  0.36438813     0.61300
H392        H  0.82444251  0.80097046  0.33103595     0.08700
O393        O  0.76125983  0.64049570  0.27634078    -0.40100
O394        O  0.76586763  0.65216942  0.33016939    -0.39300
O395        O  0.85805801  0.80846343  0.25369326    -0.39300
O396        O  0.81046426  0.80393514  0.25432387    -0.37000
O397        O  0.80328752  0.84774694  0.39261983    -0.37900
O398        O  0.83904778  0.85702455  0.35375025    -0.34100
O399        O  0.69418209  0.71006547  0.30683776    -0.35500
O400        O  0.72846175  0.72148866  0.26576762    -0.39800
C401        C  0.05031006  0.24963729  0.80919009    -0.13500
C402        C  0.02655026  0.22864929  0.83154556     0.16900
C403        C  0.03442529  0.22713894  0.86576992     0.03200
C404        C  0.06601765  0.24655755  0.87702895    -0.12000
C405        C  0.09031146  0.26722826  0.85455056    -0.03000
C406        C  0.08207049  0.26867291  0.82010390     0.02500
C407        C  0.99367456  0.20834102  0.81843571     0.09300
N408        N  0.01068674  0.20571231  0.88920842     0.65700
H409        H  0.07160486  0.24509429  0.90348737     0.18600
N410        N  0.10561440  0.28835801  0.79550866     0.76100
H411        H  0.04422812  0.25068316  0.78279713     0.10100
C412        C  0.97009494  0.21773118  0.82112611     0.03800
C413        C  0.93942058  0.19823789  0.80762666    -0.04900
C414        C  0.93191546  0.16957490  0.79084388    -0.23300
C415        C  0.95573021  0.16011195  0.78827252     0.13000
C416        C  0.98619241  0.17950133  0.80244102    -0.12500
N417        N  0.97719985  0.24725457  0.83700608     0.64700
H418        H  0.92142728  0.20567830  0.80998130     0.12600
N419        N  0.94992756  0.13171676  0.77033829     0.61300
H420        H  0.00452509  0.17250203  0.80018830     0.08700
O421        O  0.12833083  0.28303541  0.78847798    -0.40100
O422        O  0.10056100  0.30690596  0.77663273    -0.39300
O423        O  0.99679617  0.17590200  0.88421012    -0.39300
O424        O  0.00569783  0.21627899  0.91646939    -0.37000
O425        O  0.93639047  0.12559582  0.74161072    -0.37900
O426        O  0.96176947  0.11481784  0.78120175    -0.34100
O427        O  0.99613139  0.27353394  0.82288787    -0.35500
O428        O  0.96250850  0.24710912  0.86360577    -0.39800
C429        C  0.71313589  0.08485241  0.65952082    -0.13500
C430        C  0.69521834  0.10059246  0.65452553     0.16900
C431        C  0.70963114  0.13387662  0.66059443     0.03200
C432        C  0.74214735  0.15071202  0.67003753    -0.12000
C433        C  0.76054381  0.13518145  0.67372204    -0.03000
C434        C  0.74565659  0.10168754  0.66843496     0.02500
C435        C  0.66263926  0.08196124  0.63969302     0.09300
N436        N  0.69182439  0.15086655  0.65709994     0.65700
H437        H  0.75316641  0.17616510  0.67489169     0.18600
N438        N  0.76345859  0.08465475  0.66985440     0.76100
H439        H  0.70217063  0.05944195  0.65435527     0.10100
C440        C  0.65525416  0.08852077  0.60672796     0.03800
C441        C  0.62447563  0.06902523  0.59330872    -0.04900
C442        C  0.60100373  0.04256728  0.61149087    -0.23300
C443        C  0.60850635  0.03663325  0.64470715     0.13000
C444        C  0.63904802  0.05626035  0.65835278    -0.12500
N445        N  0.67882285  0.11405572  0.58610431     0.64700
H446        H  0.61928704  0.07404535  0.56786055     0.12600
N447        N  0.58565474  0.01059886  0.66489610     0.61300
H448        H  0.64456214  0.05115346  0.68364456     0.08700
O449        O  0.75087625  0.05684702  0.68256841    -0.40100
O450        O  0.78990366  0.09547025  0.65452731    -0.39300
O451        O  0.66237500  0.13738603  0.66437155    -0.39300
O452        O  0.70602282  0.18021156  0.64918840    -0.37000
O453        O  0.58369307  0.98340404  0.66265780    -0.37900
O454        O  0.57094686  0.01586205  0.68833952    -0.34100
O455        O  0.70733683  0.11914286  0.58507607    -0.35500
O456        O  0.67040129  0.12932668  0.56601358    -0.39800
C457        C  0.76103183  0.94066992  0.79402494    -0.13500
C458        C  0.77854236  0.96685791  0.81536840     0.16900
C459        C  0.77806872  0.96198814  0.85067515     0.03200
C460        C  0.76000806  0.93117584  0.86423407    -0.12000
C461        C  0.74162703  0.90476768  0.84318840    -0.03000
C462        C  0.74275799  0.90959777  0.80748148     0.02500
C463        C  0.79694633  0.99945871  0.80084920     0.09300
N464        N  0.79550311  0.98832771  0.87308619     0.65700
H465        H  0.75947696  0.92817319  0.89159176     0.18600
N466        N  0.72633953  0.88333561  0.78454049     0.76100
H467        H  0.76181908  0.94440834  0.76676912     0.10100
C468        C  0.82889007  0.01195969  0.78970413     0.03800
C469        C  0.84590886  0.04393259  0.77856694    -0.04900
C470        C  0.83188729  0.06382137  0.77890651    -0.23300
C471        C  0.79954398  0.05085756  0.78931320     0.13000
C472        C  0.78241102  0.01873192  0.79966250    -0.12500
N473        N  0.84446315  0.99277428  0.78990239     0.64700
H474        H  0.87052166  0.05357492  0.77028774     0.12600
N475        N  0.78419030  0.07020486  0.79119719     0.61300
H476        H  0.75791092  0.00904201  0.80836821     0.08700
O477        O  0.73107232  0.85959932  0.78617513    -0.40100
O478        O  0.71078490  0.88580423  0.75974133    -0.39300
O479        O  0.78507929  0.00740819  0.87942358    -0.39300
O480        O  0.81954209  0.99073082  0.88907193    -0.37000
O481        O  0.75519595  0.05871590  0.78246163    -0.37900
O482        O  0.79814972  0.09718227  0.80546793    -0.34100
O483        O  0.86193773  0.99427896  0.76524109    -0.35500
O484        O  0.84343812  0.97677126  0.81598691    -0.39800
C485        C  0.81986955  0.75760776  0.80188035    -0.13500
C486        C  0.79145243  0.73640780  0.81860741     0.16900
C487        C  0.78140490  0.70328800  0.81908741     0.03200
C488        C  0.80019616  0.69227411  0.80268295    -0.12000
C489        C  0.82876981  0.71354737  0.78600360    -0.03000
C490        C  0.83843475  0.74663472  0.78519257     0.02500
C491        C  0.77163582  0.74946716  0.83294579     0.09300
N492        N  0.75276905  0.68075261  0.83661894     0.65700
H493        H  0.79295228  0.66701041  0.80377455     0.18600
N494        N  0.86611415  0.76918766  0.76635939     0.76100
H495        H  0.82698275  0.78285057  0.80071052     0.10100
C496        C  0.78341882  0.77278982  0.85879472     0.03800
C497        C  0.76489362  0.78661238  0.86924722    -0.04900
C498        C  0.73468866  0.77751613  0.85476764    -0.23300
C499        C  0.72302395  0.75396616  0.82905908     0.13000
C500        C  0.74162618  0.74042498  0.81831657    -0.12500
N501        N  0.81390608  0.78248900  0.87478996     0.64700
H502        H  0.77416652  0.80451467  0.88904556     0.12600
N503        N  0.69219113  0.74311838  0.81388214     0.61300
H504        H  0.73264911  0.72279001  0.79821860     0.08700
O505        O  0.88325186  0.79726603  0.77733909    -0.40100
O506        O  0.87126765  0.76244399  0.73691309    -0.39300
O507        O  0.73629477  0.65259461  0.82558423    -0.39300
O508        O  0.74540348  0.68790383  0.86474687    -0.37000
O509        O  0.69008177  0.74900765  0.78293986    -0.37900
O510        O  0.66721705  0.72425797  0.83006854    -0.34100
O511        O  0.83136299  0.81119305  0.88378058    -0.35500
O512        O  0.82231834  0.76199301  0.88253078    -0.39800
C513        C  0.91270422  0.58257756  0.64469898    -0.13500
C514        C  0.89861767  0.54915795  0.64526858     0.16900
C515        C  0.86688543  0.53042071  0.65703238     0.03200
C516        C  0.84965913  0.54572501  0.66717889    -0.12000
C517        C  0.86352352  0.57923790  0.66617023    -0.03000
C518        C  0.89546193  0.59789473  0.65456264     0.02500
C519        C  0.91685119  0.53453724  0.63082699     0.09300
N520        N  0.85177222  0.49604800  0.65843671     0.65700
H521        H  0.82536037  0.53139755  0.67641227     0.18600
N522        N  0.91013915  0.63208510  0.65085353     0.76100
H523        H  0.93687159  0.59675775  0.63502569     0.10100
C524        C  0.91319446  0.52530958  0.59650133     0.03800
C525        C  0.93258563  0.51378352  0.58285191    -0.04900
C526        C  0.95562781  0.51101232  0.60287915    -0.23300
C527        C  0.95896282  0.52017503  0.63747671     0.13000
C528        C  0.93984848  0.53213470  0.65091754    -0.12500
N529        N  0.89078213  0.52869619  0.57489350     0.64700
H530        H  0.92974524  0.50730948  0.55623802     0.12600
N531        N  0.98165013  0.51767775  0.65935406     0.61300
H532        H  0.94292106  0.53956961  0.67725080     0.08700
O533        O  0.93952600  0.64954207  0.65756763    -0.40100
O534        O  0.89496207  0.64455294  0.63691551    -0.39300
O535        O  0.86745234  0.48234391  0.66761265    -0.39300
O536        O  0.82204801  0.47928658  0.65299210    -0.37000
O537        O  0.00554056  0.54269932  0.67033727    -0.37900
O538        O  0.97567079  0.49071383  0.67112027    -0.34100
O539        O  0.90029310  0.54485113  0.54776692    -0.35500
O540        O  0.86112222  0.51277420  0.58089572    -0.39800
C541        C  0.94943556  0.34955309  0.63503826    -0.13500
C542        C  0.92624245  0.32654253  0.61372640     0.16900
C543        C  0.92072978  0.33572390  0.58137649     0.03200
C544        C  0.93865948  0.36782425  0.57091317    -0.12000
C545        C  0.96211120  0.39119518  0.59216100    -0.03000
C546        C  0.96700707  0.38173595  0.62496399     0.02500
C547        C  0.90567764  0.29390590  0.62740160     0.09300
N548        N  0.89713506  0.31271995  0.55890722     0.65700
H549        H  0.93445479  0.37435322  0.54573359     0.18600
N550        N  0.98845870  0.40450227  0.64906932     0.76100
H551        H  0.95293012  0.34265490  0.66035311     0.10100
C552        C  0.91678718  0.27165717  0.62994223     0.03800
C553        C  0.89756490  0.24175910  0.64523732    -0.04900
C554        C  0.86735605  0.23373451  0.65880849    -0.23300
C555        C  0.85649048  0.25655503  0.65685295     0.13000
C556        C  0.87553541  0.28604777  0.64051412    -0.12500
N557        N  0.94754735  0.27917838  0.61695297     0.64700
H558        H  0.90621385  0.22462769  0.64622973     0.12600
N559        N  0.82721241  0.25102179  0.67283048     0.61300
H560        H  0.86747565  0.30364731  0.63940594     0.08700
O561        O  0.00920199  0.39961781  0.66387470    -0.40100
O562        O  0.98272025  0.42586156  0.66021632    -0.39300
O563        O  0.87798619  0.31931029  0.54313673    -0.39300
O564        O  0.89683335  0.28669749  0.55290118    -0.37000
O565        O  0.82064204  0.23969039  0.70262024    -0.37900
O566        O  0.81000118  0.26127008  0.65905313    -0.34100
O567        O  0.97097369  0.28745938  0.63696062    -0.35500
O568        O  0.95105306  0.27634965  0.58563940    -0.39800
C569        C  0.24189874  0.25704946  0.29108370    -0.13500
C570        C  0.23162431  0.22467005  0.29794142     0.16900
C571        C  0.20213866  0.20574885  0.31466646     0.03200
C572        C  0.18382768  0.21994660  0.32449653    -0.12000
C573        C  0.19434612  0.25253723  0.31829337    -0.03000
C574        C  0.22335355  0.27115201  0.30050391     0.02500
C575        C  0.25169913  0.21102282  0.28614745     0.09300
N576        N  0.19083197  0.17251264  0.32254802     0.65700
H577        H  0.16178447  0.20574805  0.33844878     0.18600
N578        N  0.23370809  0.30383414  0.29086962     0.76100
H579        H  0.26411945  0.27114289  0.27738651     0.10100
C580        C  0.24184446  0.18861586  0.25945012     0.03800
C581        C  0.26188099  0.17632352  0.24965571    -0.04900
C582        C  0.29176690  0.18626546  0.26540678    -0.23300
C583        C  0.30117719  0.20842267  0.29240636     0.13000
C584        C  0.28102618  0.22038402  0.30252163    -0.12500
N585        N  0.21202242  0.17850948  0.24173598     0.64700
H586        H  0.25429171  0.15934648  0.22897406     0.12600
N587        N  0.33150058  0.21997882  0.30907602     0.61300
H588        H  0.28851508  0.23750968  0.32308244     0.08700
O589        O  0.21354834  0.31210182  0.28117552    -0.40100
O590        O  0.26322757  0.32371641  0.28849719    -0.39300
O591        O  0.21015217  0.16305143  0.33192403    -0.39300
O592        O  0.16112353  0.15299871  0.32315604    -0.37000
O593        O  0.35698766  0.23830081  0.29334033    -0.37900
O594        O  0.33252721  0.21617496  0.34074813    -0.34100
O595        O  0.20267536  0.19837600  0.23441828    -0.35500
O596        O  0.19639149  0.15031140  0.23056253    -0.39800
C597        C  0.12117953  0.38826776  0.46511359    -0.13500
C598        C  0.13342682  0.42140950  0.46228055     0.16900
C599        C  0.16314780  0.44041461  0.44590289     0.03200
C600        C  0.18018284  0.42563483  0.43334742    -0.12000
C601        C  0.16824123  0.39252644  0.43700749    -0.03000
C602        C  0.13824872  0.37359496  0.45291170     0.02500
C603        C  0.11465716  0.43516851  0.47758919     0.09300
N604        N  0.17648643  0.47448578  0.44217423     0.65700
H605        H  0.20313367  0.44007455  0.42108203     0.18600
N606        N  0.12529687  0.33972316  0.45796527     0.76100
H607        H  0.09842007  0.37379537  0.47775219     0.10100
C608        C  0.09742903  0.44649879  0.45782562     0.03800
C609        C  0.07871113  0.45758319  0.47435697    -0.04900
C610        C  0.07644264  0.45715647  0.51002238    -0.23300
C611        C  0.09414795  0.44611783  0.52953755     0.13000
C612        C  0.11318018  0.43559191  0.51309537    -0.12500
N613        N  0.09812799  0.44638569  0.42126533     0.64700
H614        H  0.06532274  0.46605596  0.45919721     0.12600
N615        N  0.09186601  0.44375547  0.56589088     0.61300
H616        H  0.12622235  0.42664448  0.52818305     0.08700
O617        O  0.09565208  0.32101554  0.45405507    -0.40100
O618        O  0.14265159  0.32880826  0.46988817    -0.39300
O619        O  0.17431785  0.49093050  0.46589357    -0.39300
O620        O  0.19274310  0.48862721  0.41616149    -0.37000
O621        O  0.06494340  0.42692540  0.57982064    -0.37900
O622        O  0.11700737  0.45384480  0.58364167    -0.34100
O623        O  0.09800735  0.42343030  0.40554550    -0.35500
O624        O  0.09607048  0.46791937  0.40448347    -0.39800
C625        C  0.98370266  0.72198350  0.30613602    -0.13500
C626        C  0.00232379  0.75318804  0.29339327     0.16900
C627        C  0.98948860  0.76441702  0.26757236     0.03200
C628        C  0.95875946  0.74382759  0.25466207    -0.12000
C629        C  0.94013681  0.71248908  0.26728865    -0.03000
C630        C  0.95293257  0.70156212  0.29347918     0.02500
C631        C  0.03606134  0.77225532  0.30532025     0.09300
N632        N  0.00698548  0.79663652  0.25459976     0.65700
H633        H  0.94905023  0.75267472  0.23501881     0.18600
N634        N  0.93594730  0.66939515  0.30633969     0.76100
H635        H  0.99371907  0.71292554  0.32524414     0.10100
C636        C  0.04394675  0.77696432  0.34030548     0.03800
C637        C  0.07629696  0.79194790  0.35014927    -0.04900
C638        C  0.10098050  0.80334688  0.32599818    -0.23300
C639        C  0.09319113  0.79915940  0.29103298     0.13000
C640        C  0.06082967  0.78344846  0.28119157    -0.12500
N641        N  0.01962272  0.76764479  0.36599384     0.64700
H642        H  0.08237575  0.79599200  0.37688016     0.12600
N643        N  0.11762680  0.80989728  0.26532898     0.61300
H644        H  0.05486959  0.77913590  0.25445425     0.08700
O645        O  0.92769658  0.64612934  0.28638082    -0.40100
O646        O  0.93415965  0.66437482  0.33800491    -0.39300
O647        O  0.00391133  0.80254504  0.22388997    -0.39300
O648        O  0.02320344  0.81966085  0.27438205    -0.37000
O649        O  0.14237149  0.80714989  0.26975225    -0.37900
O650        O  0.11324267  0.81957720  0.23688605    -0.34100
O651        O  0.02388921  0.75902422  0.39509469    -0.35500
O652        O  0.99540919  0.77118545  0.36094700    -0.39800
C653        C  0.24861090  0.01287964  0.26940694    -0.13500
C654        C  0.26076944  0.00372366  0.29731057     0.16900
C655        C  0.29162504  0.02520543  0.30993745     0.03200
C656        C  0.30941081  0.05534599  0.29440418    -0.12000
C657        C  0.29707659  0.06477192  0.26672931    -0.03000
C658        C  0.26629106  0.04302673  0.25417784     0.02500
C659        C  0.24155263  0.97082948  0.31123860     0.09300
N660        N  0.30499969  0.01708270  0.33870890     0.65700
H661        H  0.33298148  0.07168271  0.30435705     0.18600
N662        N  0.25230459  0.05127735  0.22636975     0.76100
H663        H  0.22517604  0.99635610  0.25923674     0.10100
C664        C  0.20987477  0.95928029  0.32305502     0.03800
C665        C  0.19157191  0.92693988  0.33242977    -0.04900
C666        C  0.20426247  0.90598717  0.33085218    -0.23300
C667        C  0.23608297  0.91767313  0.31932262     0.13000
C668        C  0.25432839  0.94996729  0.30986971    -0.12500
N669        N  0.19621427  0.98008946  0.32629718     0.64700
H670        H  0.16743670  0.91818637  0.34188608     0.12600
N671        N  0.24973472  0.89692565  0.31555474     0.61300
H672        H  0.27832429  0.95864103  0.30002854     0.08700
O673        O  0.23481741  0.06372568  0.23202388    -0.40100
O674        O  0.25380025  0.04218118  0.19675331    -0.39300
O675        O  0.33465618  0.02630464  0.33988528    -0.39300
O676        O  0.28785890  0.00315917  0.36428790    -0.37000
O677        O  0.23354555  0.86961803  0.30239223    -0.37900
O678        O  0.27911453  0.90724727  0.32168653    -0.34100
O679        O  0.16653391  0.96933293  0.32176106    -0.35500
O680        O  0.21306784  0.00837932  0.33682883    -0.39800
C681        C  0.38524489  0.91946451  0.47630247    -0.13500
C682        C  0.36275453  0.89158567  0.49311515     0.16900
C683        C  0.37199394  0.88160656  0.52305691     0.03200
C684        C  0.40342444  0.89983693  0.53538642    -0.12000
C685        C  0.42578675  0.92831031  0.51914846    -0.03000
C686        C  0.41629639  0.93805247  0.48918339     0.02500
C687        C  0.33021799  0.87259107  0.47815879     0.09300
N688        N  0.34965841  0.85365718  0.54175458     0.65700
H689        H  0.41011062  0.89205629  0.55847846     0.18600
N690        N  0.43742753  0.96724048  0.47201681     0.76100
H691        H  0.37846490  0.92711499  0.45315776     0.10100
C692        C  0.31012300  0.88606410  0.47160332     0.03800
C693        C  0.27998648  0.86711169  0.45657804    -0.04900
C694        C  0.26921200  0.83496935  0.44807566    -0.23300
C695        C  0.28978713  0.82189265  0.45373127     0.13000
C696        C  0.31983851  0.84075849  0.46891654    -0.12500
N697        N  0.31936917  0.91844169  0.48093030     0.64700
H698        H  0.26423422  0.87720216  0.45279334     0.12600
N699        N  0.28125313  0.79016227  0.44282594     0.61300
H700        H  0.33567815  0.83077640  0.47281757     0.08700
O701        O  0.44012461  0.99336454  0.48229066    -0.40100
O702        O  0.44973335  0.96640368  0.44402205    -0.39300
O703        O  0.35915681  0.83633741  0.55670003    -0.39300
O704        O  0.32123420  0.84801500  0.54633601    -0.37000
O705        O  0.26969758  0.78097442  0.41351507    -0.37900
O706        O  0.28941283  0.77306223  0.46032672    -0.34100
O707        O  0.31105578  0.93496211  0.46263165    -0.35500
O708        O  0.33303277  0.92955903  0.50902915    -0.39800
C709        C  0.11351422  0.63187449  0.52572676    -0.13500
C710        C  0.10233951  0.64149834  0.49740931     0.16900
C711        C  0.07354074  0.61913647  0.48135644     0.03200
C712        C  0.05687391  0.58764198  0.49406521    -0.12000
C713        C  0.06853253  0.57763676  0.52188940    -0.03000
C714        C  0.09719623  0.60036829  0.53794974     0.02500
C715        C  0.12244012  0.67450134  0.48416132     0.09300
N716        N  0.06122931  0.62761669  0.45189285     0.65700
H717        H  0.03487772  0.57065590  0.48158888     0.18600
N718        N  0.11075634  0.59182451  0.56601069     0.76100
H719        H  0.13567210  0.64889827  0.53797442     0.10100
C720        C  0.11178321  0.69738519  0.48263177     0.03800
C721        C  0.13183316  0.72757205  0.46793523    -0.04900
C722        C  0.16210884  0.73537808  0.45477708    -0.23300
C723        C  0.17227795  0.71213231  0.45594859     0.13000
C724        C  0.15267242  0.68237310  0.47122248    -0.12500
N725        N  0.08106675  0.69058978  0.49590838     0.64700
H726        H  0.12406724  0.74537374  0.46743905     0.12600
N727        N  0.20138596  0.71751265  0.43984442     0.61300
H728        H  0.16042960  0.66453528  0.47159315     0.08700
O729        O  0.11500522  0.60595115  0.59407121    -0.40100
O730        O  0.12305329  0.57406311  0.56125662    -0.39300
O731        O  0.07991252  0.64517118  0.42879887    -0.39300
O732        O  0.03134342  0.61503059  0.44728066    -0.37000
O733        O  0.20720847  0.72791402  0.40967817    -0.37900
O734        O  0.21858354  0.70719741  0.45351835    -0.34100
O735        O  0.06973577  0.67330168  0.52208271    -0.35500
O736        O  0.06617348  0.70379018  0.48293694    -0.39800
C737        C  0.97208345  0.21806549  0.31146478    -0.13500
C738        C  0.99423125  0.21034827  0.29715548     0.16900
C739        C  0.98485392  0.18892113  0.26954365     0.03200
C740        C  0.95359612  0.17594982  0.25677904    -0.12000
C741        C  0.93163673  0.18446858  0.27024300    -0.03000
C742        C  0.94117306  0.20580308  0.29801566     0.02500
C743        C  0.02690549  0.22451210  0.31168696     0.09300
N744        N  0.00690687  0.18079621  0.25356104     0.65700
H745        H  0.94672695  0.15966186  0.23550694     0.18600
N746        N  0.92033301  0.21625779  0.31209978     0.76100
H747        H  0.97913582  0.23435326  0.33277358     0.10100
C748        C  0.04740452  0.25800046  0.31276192     0.03800
C749        C  0.07844796  0.26995839  0.32585094    -0.04900
C750        C  0.08972216  0.24933743  0.33718364    -0.23300
C751        C  0.06873005  0.21589660  0.33753137     0.13000
C752        C  0.03756083  0.20394487  0.32471366    -0.12500
N753        N  0.03781576  0.28007686  0.29920619     0.64700
H754        H  0.09462869  0.29556285  0.32520295     0.12600
N755        N  0.07849103  0.19391510  0.35100705     0.61300
H756        H  0.02138145  0.17833836  0.32481921     0.08700
O757        O  0.91590817  0.23694334  0.29650714    -0.40100
O758        O  0.91001610  0.20827816  0.34203751    -0.39300
O759        O  0.99719136  0.15277825  0.24273276    -0.39300
O760        O  0.03520020  0.20224715  0.24698312    -0.37000
O761        O  0.09636352  0.20115444  0.37689958    -0.37900
O762        O  0.06689535  0.16604129  0.33902166    -0.34100
O763        O  0.04732444  0.30689587  0.31315994    -0.35500
O764        O  0.02301453  0.27451075  0.27123733    -0.39800
C765        C  0.78866897  0.00260165  0.26505661    -0.13500
C766        C  0.78612292  0.99949760  0.30045953     0.16900
C767        C  0.79625220  0.02698149  0.32070375     0.03200
C768        C  0.80825624  0.05706701  0.30492824    -0.12000
C769        C  0.81030048  0.06023070  0.26934466    -0.03000
C770        C  0.80049867  0.03255687  0.24931357     0.02500
C771        C  0.77359092  0.96729162  0.31565779     0.09300
N772        N  0.79417234  0.02468322  0.35710287     0.65700
H773        H  0.81585321  0.07808742  0.32058371     0.18600
N774        N  0.80136765  0.03422939  0.21296719     0.76100
H775        H  0.78101044  0.98148265  0.24952248     0.10100
C776        C  0.74085907  0.94432933  0.31321507     0.03800
C777        C  0.73025378  0.91343879  0.32619857    -0.04900
C778        C  0.75155195  0.90514534  0.34226338    -0.23300
C779        C  0.78441167  0.92839771  0.34489235     0.13000
C780        C  0.79504285  0.95909193  0.33120115    -0.12500
N781        N  0.71815444  0.95216134  0.29801271     0.64700
H782        H  0.70511891  0.89578492  0.32388575     0.12600
N783        N  0.80706311  0.92162942  0.36209056     0.61300
H784        H  0.82018105  0.97688049  0.33301427     0.08700
O785        O  0.78329930  0.04221459  0.19708949    -0.40100
O786        O  0.81729141  0.02413233  0.19667033    -0.39300
O787        O  0.81680121  0.04497988  0.37513406    -0.39300
O788        O  0.76881927  0.00390194  0.37134390    -0.37000
O789        O  0.80036359  0.90794848  0.39078042    -0.37900
O790        O  0.83516738  0.93275324  0.35066761    -0.34100
O791        O  0.69679918  0.93265778  0.27820263    -0.35500
O792        O  0.71753352  0.97719359  0.30670827    -0.39800
C793        C  0.12575166  0.39181984  0.98133112    -0.13500
C794        C  0.12650194  0.41675758  0.96173953     0.16900
C795        C  0.14234829  0.42457845  0.93006914     0.03200
C796        C  0.15651707  0.40677428  0.91851073    -0.12000
C797        C  0.15469280  0.38082062  0.93739132    -0.03000
C798        C  0.13966683  0.37386661  0.96965501     0.02500
C799        C  0.11109116  0.43470101  0.97519191     0.09300
N800        N  0.14310625  0.44948301  0.90870950     0.65700
H801        H  0.16780250  0.41247064  0.89374375     0.18600
N802        N  0.13807218  0.34868879  0.99090588     0.76100
H803        H  0.11424189  0.38628619  0.00600726     0.10100
C804        C  0.07806632  0.41927031  0.98293637     0.03800
C805        C  0.06465547  0.43736724  0.99551669    -0.04900
C806        C  0.08332793  0.47052905  0.00064539    -0.23300
C807        C  0.11672158  0.48570051  0.99424763     0.13000
C808        C  0.13005151  0.46759720  0.98121771    -0.12500
N809        N  0.05762438  0.38559996  0.97720239     0.64700
H810        H  0.03902831  0.42558936  0.99990448     0.12600
N811        N  0.13752486  0.51896433  0.00175111     0.61300
H812        H  0.15558712  0.47909135  0.97631390     0.08700
O813        O  0.16344060  0.35112164  0.00373183    -0.40100
O814        O  0.11125378  0.32701069  0.00147690    -0.39300
O815        O  0.16750547  0.46658582  0.89081465    -0.39300
O816        O  0.11830093  0.45222330  0.90482665    -0.37000
O817        O  0.16183047  0.53552828  0.98351031    -0.37900
O818        O  0.13368287  0.53099606  0.02857145    -0.34100
O819        O  0.03518477  0.36916093  0.99767764    -0.35500
O820        O  0.05990580  0.37282469  0.95017022    -0.39800
C821        C  0.90060619  0.57452286  0.13905563    -0.13500
C822        C  0.91109064  0.55934940  0.16244534     0.16900
C823        C  0.91059577  0.56488928  0.19750000     0.03200
C824        C  0.89943128  0.58545057  0.20841418    -0.12000
C825        C  0.88855052  0.60051952  0.18514251    -0.03000
C826        C  0.88964740  0.59528104  0.14996789     0.02500
C827        C  0.92372052  0.53878892  0.14967481     0.09300
N828        N  0.92052446  0.54923244  0.22227054     0.65700
H829        H  0.89872946  0.58923472  0.23544243     0.18600
N830        N  0.87913408  0.61011924  0.12503477     0.76100
H831        H  0.90135252  0.57050350  0.11208291     0.10100
C832        C  0.90366296  0.50949893  0.13340825     0.03800
C833        C  0.91706939  0.49134292  0.12092922    -0.04900
C834        C  0.94987793  0.50151589  0.12481117    -0.23300
C835        C  0.96989698  0.53072881  0.14146998     0.13000
C836        C  0.95653554  0.54916037  0.15340375    -0.12500
N837        N  0.86978110  0.49774067  0.12973404     0.64700
H838        H  0.90176412  0.46902683  0.10803820     0.12600
N839        N  0.00344050  0.54168110  0.14704708     0.61300
H840        H  0.97172382  0.57161611  0.16610799     0.08700
O841        O  0.89630543  0.63959001  0.11862832    -0.40100
O842        O  0.85708873  0.59286843  0.10455507    -0.39300
O843        O  0.93607775  0.56419762  0.24824693    -0.39300
O844        O  0.91131672  0.51969842  0.21990909    -0.37000
O845        O  0.01291479  0.52220678  0.15572485    -0.37900
O846        O  0.02333041  0.57126195  0.14651659    -0.34100
O847        O  0.85530238  0.48265489  0.10335131    -0.35500
O848        O  0.85368954  0.49964404  0.15406095    -0.39800
C849        C  0.88078447  0.29054705  0.17425445    -0.13500
C850        C  0.90055561  0.29771959  0.14562103     0.16900
C851        C  0.90807755  0.27448983  0.13332915     0.03200
C852        C  0.89580273  0.24485941  0.15018419    -0.12000
C853        C  0.87589356  0.23754670  0.17886956    -0.03000
C854        C  0.86841234  0.26091425  0.19085899     0.02500
C855        C  0.91492551  0.33049987  0.13083769     0.09300
N856        N  0.92766933  0.28033235  0.10365226     0.65700
H857        H  0.90171167  0.22726020  0.14047608     0.18600
N858        N  0.84840294  0.25517480  0.21986910     0.76100
H859        H  0.87537887  0.30842426  0.18424665     0.10100
C860        C  0.89584633  0.34428118  0.12072461     0.03800
C861        C  0.91085787  0.37669614  0.11118330    -0.04900
C862        C  0.94439603  0.39557021  0.11086253    -0.23300
C863        C  0.96346224  0.38153392  0.12013147     0.13000
C864        C  0.94846547  0.34920562  0.12992503    -0.12500
N865        N  0.86140816  0.32573184  0.11962624     0.64700
H866        H  0.89624384  0.38723641  0.10338139     0.12600
N867        N  0.99785399  0.39996307  0.12146288     0.61300
H868        H  0.96311457  0.33890491  0.13838558     0.08700
O869        O  0.82071665  0.25188243  0.21602039    -0.40100
O870        O  0.86042653  0.25948287  0.24928571    -0.39300
O871        O  0.94624302  0.26862071  0.10163981    -0.39300
O872        O  0.92446516  0.29475201  0.07817784    -0.37000
O873        O  0.01465554  0.38756322  0.11242945    -0.37900
O874        O  0.01140891  0.42715189  0.13530565    -0.34100
O875        O  0.84453486  0.33888375  0.12526449    -0.35500
O876        O  0.84778820  0.29696593  0.10996454    -0.39800
C877        C  0.61790534  0.89209660  0.96318259    -0.13500
C878        C  0.58487946  0.87555916  0.95614353     0.16900
C879        C  0.57248739  0.84857578  0.93456654     0.03200
C880        C  0.59356006  0.83939848  0.92010567    -0.12000
C881        C  0.62651022  0.85565369  0.92759759    -0.03000
C882        C  0.63878690  0.88238749  0.94945039     0.02500
C883        C  0.56437756  0.88838312  0.96969873     0.09300
N884        N  0.53864639  0.82962883  0.92801697     0.65700
H885        H  0.58387613  0.81843205  0.90403598     0.18600
N886        N  0.67239910  0.90063855  0.95705755     0.76100
H887        H  0.62768892  0.91329154  0.97891500     0.10100
C888        C  0.56456893  0.89560491  0.00454126     0.03800
C889        C  0.54695594  0.91028355  0.01532943    -0.04900
C890        C  0.52838444  0.91715266  0.99251340    -0.23300
C891        C  0.52795789  0.90973323  0.95773379     0.13000
C892        C  0.54609288  0.89562556  0.94680309    -0.12500
N893        N  0.58161899  0.88739441  0.02939340     0.64700
H894        H  0.54669426  0.91524965  0.04211838     0.12600
N895        N  0.51015988  0.91715478  0.93309355     0.61300
H896        H  0.54659883  0.89097288  0.91997104     0.08700
O897        O  0.68152661  0.91041796  0.98692318    -0.40100
O898        O  0.69274356  0.91046361  0.93334469    -0.39300
O899        O  0.52883078  0.81589833  0.89974500    -0.39300
O900        O  0.51862377  0.82370327  0.95154675    -0.37000
O901        O  0.50964013  0.94324785  0.93455254    -0.37900
O902        O  0.49734171  0.89898752  0.90798605    -0.34100
O903        O  0.59405809  0.90498965  0.05498215    -0.35500
O904        O  0.58147587  0.86098051  0.02777669    -0.39800
C905        C  0.44765961  0.10328518  0.18829551    -0.13500
C906        C  0.44810204  0.10135845  0.15283404     0.16900
C907        C  0.43149779  0.11302152  0.13278782     0.03200
C908        C  0.41385373  0.12549219  0.14869965    -0.12000
C909        C  0.41206968  0.12617376  0.18434649    -0.03000
C910        C  0.42973212  0.11540323  0.20433040     0.02500
C911        C  0.46526443  0.08610641  0.13733938     0.09300
N912        N  0.43176944  0.11173639  0.09639113     0.65700
H913        H  0.40080550  0.13400777  0.13301976     0.18600
N914        N  0.42853435  0.11500547  0.24073848     0.76100
H915        H  0.46053771  0.09432179  0.20362622     0.10100
C916        C  0.49646387  0.10431435  0.12429853     0.03800
C917        C  0.51188535  0.08864717  0.11018779    -0.04900
C918        C  0.49697046  0.05501744  0.10959897    -0.23300
C919        C  0.46530163  0.03682874  0.12217859     0.13000
C920        C  0.44976150  0.05267353  0.13554170    -0.12500
N921        N  0.51300018  0.13856953  0.12605248     0.64700
H922        H  0.53604991  0.10280477  0.10052185     0.12600
N923        N  0.44912038  0.00245215  0.12315705     0.61300
H924        H  0.42569517  0.03880269  0.14557772     0.08700
O925        O  0.45420385  0.12610651  0.25772287    -0.40100
O926        O  0.40204520  0.09900749  0.25576896    -0.39300
O927        O  0.42387248  0.08559635  0.08161943    -0.39300
O928        O  0.43699372  0.13603523  0.07890623    -0.37000
O929        O  0.46282900  0.98794117  0.13582953    -0.37900
O930        O  0.41973599  0.98671286  0.11559461    -0.34100
O931        O  0.51713488  0.15227738  0.15436670    -0.35500
O932        O  0.52618965  0.15510850  0.09986800    -0.39800
C933        C  0.70231077  0.10972022  0.17428975    -0.13500
C934        C  0.69047148  0.08068689  0.15679295     0.16900
C935        C  0.71120240  0.06817471  0.14976244     0.03200
C936        C  0.74313799  0.08491219  0.16089012    -0.12000
C937        C  0.75457737  0.11327822  0.17961620    -0.03000
C938        C  0.73406257  0.12619964  0.18576251     0.02500
C939        C  0.65705111  0.06544707  0.14401464     0.09300
N940        N  0.70005290  0.03813534  0.13259152     0.65700
H941        H  0.75870276  0.07477789  0.15642673     0.18600
N942        N  0.74526534  0.15640757  0.20250441     0.76100
H943        H  0.68680223  0.11999139  0.17842331     0.10100
C944        C  0.63101894  0.05864428  0.16580898     0.03800
C945        C  0.60055327  0.04835685  0.15173925    -0.04900
C946        C  0.59534309  0.04410022  0.11659297    -0.23300
C947        C  0.62125632  0.05025973  0.09488125     0.13000
C948        C  0.65175089  0.06080704  0.10891496    -0.12500
N949        N  0.63502693  0.06172378  0.20210446     0.64700
H950        H  0.58054587  0.04296560  0.16840829     0.12600
N951        N  0.61744978  0.04741876  0.05857849     0.61300
H952        H  0.67183528  0.06680119  0.09213917     0.08700
O953        O  0.72694538  0.16060888  0.22227918    -0.40100
O954        O  0.77179836  0.18010074  0.19426188    -0.39300
O955        O  0.71874467  0.03380940  0.11351899    -0.39300
O956        O  0.67269156  0.01481958  0.13902349    -0.37000
O957        O  0.60169766  0.05847325  0.04311331    -0.37900
O958        O  0.63281619  0.03714676  0.04152270    -0.34100
O959        O  0.61827408  0.07011936  0.21948398    -0.35500
O960        O  0.65320658  0.05341056  0.21723836    -0.39800
C961        C  0.98186070  0.71656513  0.79008369    -0.13500
C962        C  0.99957312  0.74987275  0.79318169     0.16900
C963        C  0.98585425  0.76895224  0.78341292     0.03200
C964        C  0.95409189  0.75408681  0.77176627    -0.12000
C965        C  0.93558605  0.72055516  0.77044583    -0.03000
C966        C  0.94988430  0.70158036  0.77922390     0.02500
C967        C  0.03170402  0.76395306  0.80859893     0.09300
N968        N  0.00347790  0.80321366  0.78596669     0.65700
H969        H  0.94341623  0.76876445  0.76471384     0.18600
N970        N  0.93198406  0.66721623  0.77910772     0.76100
H971        H  0.99256528  0.70205929  0.79775161     0.10100
C972        C  0.03507319  0.76453864  0.84409400     0.03800
C973        C  0.06556060  0.77760553  0.85856178    -0.04900
C974        C  0.09308719  0.78989287  0.83810041    -0.23300
C975        C  0.08970964  0.78938823  0.80226053     0.13000
C976        C  0.05892280  0.77624923  0.78790101    -0.12500
N977        N  0.00756022  0.75145173  0.86567902     0.64700
H978        H  0.06760897  0.77735508  0.88599734     0.12600
N979        N  0.11707335  0.80266855  0.78021089     0.61300
H980        H  0.05617937  0.77586715  0.76052180     0.08700
O981        O  0.90525131  0.65267542  0.79399451    -0.40100
O982        O  0.94463791  0.65134153  0.76788693    -0.39300
O983        O  0.00207025  0.82039797  0.76223383    -0.39300
O984        O  0.01782312  0.81633413  0.81318430    -0.37000
O985        O  0.11685324  0.78798902  0.75360955    -0.37900
O986        O  0.13972418  0.83074235  0.78496823    -0.34100
O987        O  0.99645544  0.72341086  0.87738202    -0.35500
O988        O  0.99551203  0.76853963  0.87468612    -0.39800
C989        C  0.21664836  0.96098852  0.84374453    -0.13500
C990        C  0.23764086  0.97007800  0.81604333     0.16900
C991        C  0.24749640  0.94862562  0.80365671     0.03200
C992        C  0.23616546  0.91860177  0.81947113    -0.12000
C993        C  0.21490409  0.90926329  0.84717655    -0.03000
C994        C  0.20526156  0.93102009  0.85934364     0.02500
C995        C  0.25028374  0.00281105  0.80180909     0.09300
N996        N  0.26829500  0.95660937  0.77469959     0.65700
H997        H  0.24366636  0.90223301  0.80959299     0.18600
N998        N  0.18365734  0.92307561  0.88727718     0.76100
H999        H  0.20926486  0.97748989  0.85356166     0.10100
C1000       C  0.22980651  0.01319757  0.78725537     0.03800
C1001       C  0.24274208  0.04512107  0.77647243    -0.04900
C1002       C  0.27564696  0.06695977  0.77965515    -0.23300
C1003       C  0.29602975  0.05661249  0.79478478     0.13000
C1004       C  0.28310010  0.02455575  0.80524617    -0.12500
N1005       N  0.19613780  0.99157155  0.78245386     0.64700
H1006       H  0.22711446  0.05271895  0.76435529     0.12600
N1007       N  0.32940426  0.07843523  0.80104221     0.61300
H1008       H  0.29854468  0.01670834  0.81732908     0.08700
O1009       O  0.15444210  0.91406437  0.88176875    -0.40100
O1010       O  0.19455756  0.92972623  0.91716136    -0.39300
O1011       O  0.28882797  0.94726980  0.77328964    -0.39300
O1012       O  0.26427192  0.97038434  0.74912648    -0.37000
O1013       O  0.33823967  0.10639147  0.81154088    -0.37900
O1014       O  0.34968039  0.06875952  0.79966085    -0.34100
O1015       O  0.17619807  0.00159969  0.78483419    -0.35500
O1016       O  0.18650208  0.96325176  0.77266800    -0.39800
C1017       C  0.08677965  0.62262771  0.99471917    -0.13500
C1018       C  0.08834939  0.62718040  0.95933904     0.16900
C1019       C  0.07821898  0.60031290  0.93783382     0.03200
C1020       C  0.06803132  0.56993750  0.95237682    -0.12000
C1021       C  0.06679727  0.56557759  0.98774854    -0.03000
C1022       C  0.07604933  0.59225883  0.00919174     0.02500
C1023       C  0.10369154  0.66056652  0.94584296     0.09300
N1024       N  0.07766010  0.60332153  0.90144311     0.65700
H1025       H  0.06040666  0.54936247  0.93601110     0.18600
N1026       N  0.07618399  0.58930915  0.04557984     0.76100
H1027       H  0.09528487  0.64316385  0.01130625     0.10100
C1028       C  0.09440522  0.68294625  0.95681794     0.03800
C1029       C  0.11218863  0.71503068  0.94628190    -0.04900
C1030       C  0.13852686  0.72534934  0.92426938    -0.23300
C1031       C  0.14764279  0.70285185  0.91321228     0.13000
C1032       C  0.13022125  0.67091918  0.92418684    -0.12500
N1033       N  0.06662176  0.67343240  0.97783947     0.64700
H1034       H  0.10450139  0.73182376  0.95431720     0.12600
N1035       N  0.17509851  0.71205577  0.89192633     0.61300
H1036       H  0.13812584  0.65417415  0.91657591     0.08700
O1037       O  0.06789042  0.60549570  0.06399988    -0.40100
O1038       O  0.08797111  0.57348391  0.05945465    -0.39300
O1039       O  0.08219096  0.58469476  0.88255508    -0.39300
O1040       O  0.06955002  0.62238488  0.88805079    -0.37000
O1041       O  0.20202585  0.73489988  0.90054249    -0.37900
O1042       O  0.17353452  0.69453404  0.86736112    -0.26000
O1043       O  0.06611867  0.69259875  0.99937957    -0.35500
O1044       O  0.04145224  0.64712394  0.97282196    -0.39800
C1045       C  0.37020663  0.86470004  0.99181808    -0.13500
C1046       C  0.35877969  0.88525451  0.98089502     0.16900
C1047       C  0.37810019  0.91864522  0.98465504     0.03200
C1048       C  0.40907231  0.93074379  0.99803652    -0.12000
C1049       C  0.42117562  0.91033387  0.00777339    -0.03000
C1050       C  0.40099319  0.87676350  0.00587574     0.02500
C1051       C  0.32646724  0.87119719  0.96571140     0.09300
N1052       N  0.36721429  0.94059036  0.97399863     0.65700
H1053       H  0.42446079  0.95645788  0.99918755     0.18600
N1054       N  0.41097685  0.85476778  0.01881476     0.76100
H1055       H  0.35475864  0.83904937  0.98979255     0.10100
C1056       C  0.32072845  0.85862642  0.93265872     0.03800
C1057       C  0.28988143  0.84551190  0.91879540    -0.04900
C1058       C  0.26440704  0.84489459  0.93722953    -0.23300
C1059       C  0.27010290  0.85632361  0.97116031     0.13000
C1060       C  0.30117119  0.86978259  0.98473774    -0.12500
N1061       N  0.34630781  0.86018153  0.91245306     0.64700
H1062       H  0.28623948  0.83690920  0.89289053     0.12600
N1063       N  0.24474094  0.85381530  0.99250597     0.61300
H1064       H  0.30555216  0.87871936  0.01054200     0.08700
O1065       O  0.40019623  0.82737285  0.00581494    -0.40100
O1066       O  0.42777732  0.86123432  0.04548627    -0.39300
O1067       O  0.37597790  0.96628636  0.99006712    -0.39300
O1068       O  0.35138641  0.93596576  0.94683987    -0.37000
O1069       O  0.22105053  0.82664328  0.99874225    -0.37900
O1070       O  0.24868832  0.87755223  0.00985495    -0.34100
O1071       O  0.34363719  0.83516795  0.89893334    -0.35500
O1072       O  0.37069586  0.88685078  0.90623142    -0.39800
C1073       C  0.36688587  0.43065455  0.51397605    -0.13500
C1074       C  0.35978989  0.41187522  0.48477824     0.16900
C1075       C  0.38415100  0.40832732  0.46875682     0.03200
C1076       C  0.41531645  0.42399028  0.48225154    -0.12000
C1077       C  0.42275695  0.44310336  0.51154661    -0.03000
C1078       C  0.39804237  0.44666336  0.52724888     0.02500
C1079       C  0.32752951  0.39909299  0.46964152     0.09300
N1080       N  0.37751276  0.38858965  0.43921291     0.65700
H1081       H  0.43369890  0.42062505  0.47001978     0.18600
N1082       N  0.40420314  0.46744200  0.55565278     0.76100
H1083       H  0.34826774  0.43400969  0.52571022     0.10100
C1084       C  0.30027517  0.37421140  0.48555010     0.03800
C1085       C  0.26969179  0.36524851  0.47244748    -0.04900
C1086       C  0.26605750  0.38071075  0.44372089    -0.23300
C1087       C  0.29329643  0.40531295  0.42774771     0.13000
C1088       C  0.32381498  0.41425283  0.44068052    -0.12500
N1089       N  0.30342640  0.35777168  0.51468809     0.64700
H1090       H  0.24871356  0.34601797  0.48448995     0.12600
N1091       N  0.29015573  0.42158215  0.39859390     0.61300
H1092       H  0.34466436  0.43367304  0.42865731     0.08700
O1093       O  0.38669481  0.45724912  0.58171448    -0.40100
O1094       O  0.42264697  0.49715595  0.55212936    -0.39300
O1095       O  0.39794850  0.39682664  0.41570479    -0.39300
O1096       O  0.35247752  0.36161210  0.43779557    -0.37000
O1097       O  0.28498264  0.44484398  0.40227203    -0.37900
O1098       O  0.29434525  0.41389226  0.36923427    -0.34100
O1099       O  0.28601053  0.35301889  0.54044299    -0.35500
O1100       O  0.32202482  0.34603126  0.51386812    -0.39800
C1101       C  0.45724714  0.35813168  0.64526141    -0.13500
C1102       C  0.46105970  0.33444193  0.62878812     0.16900
C1103       C  0.47922551  0.34201419  0.59859659     0.03200
C1104       C  0.49233480  0.37306870  0.58499549    -0.12000
C1105       C  0.48736457  0.39662751  0.60065206    -0.03000
C1106       C  0.47040603  0.38906080  0.63179137     0.02500
C1107       C  0.44495589  0.30172395  0.64314255     0.09300
N1108       N  0.48361564  0.31830608  0.58086104     0.65700
H1109       H  0.50544137  0.37837980  0.56130522     0.18600
N1110       N  0.46571340  0.41221479  0.64987840     0.76100
H1111       H  0.44367996  0.35244714  0.66869911     0.10100
C1112       C  0.46228674  0.28750354  0.65723961     0.03800
C1113       C  0.44556333  0.25521455  0.66719856    -0.04900
C1114       C  0.41210008  0.23703468  0.66357716    -0.23300
C1115       C  0.39487244  0.25154476  0.64986575     0.13000
C1116       C  0.41150053  0.28388691  0.64037453    -0.12500
N1117       N  0.49653853  0.30536162  0.66166479     0.64700
H1118       H  0.45868606  0.24415904  0.67812790     0.12600
N1119       N  0.36098980  0.23345313  0.64344340     0.61300
H1120       H  0.39843905  0.29483191  0.62900820     0.08700
O1121       O  0.48581308  0.42930465  0.67211757    -0.40100
O1122       O  0.43951868  0.41247214  0.64706856    -0.39300
O1123       O  0.46008072  0.29088102  0.57545674    -0.39300
O1124       O  0.51038636  0.32572171  0.56766103    -0.37000
O1125       O  0.34347605  0.24607619  0.64799914    -0.37900
O1126       O  0.34922259  0.20655497  0.62907565    -0.34100
O1127       O  0.51008366  0.33453644  0.66982329    -0.35500
O1128       O  0.51305916  0.29132652  0.66042524    -0.39800
C1129       C  0.66246614  0.53651930  0.58638094    -0.13500
C1130       C  0.66789044  0.54843978  0.61951378     0.16900
C1131       C  0.64223148  0.54667937  0.63875637     0.03200
C1132       C  0.61155776  0.53294334  0.62407012    -0.12000
C1133       C  0.60597353  0.52120914  0.59059574    -0.03000
C1134       C  0.63195575  0.52299527  0.57174091     0.02500
C1135       C  0.70045363  0.56130872  0.63367757     0.09300
N1136       N  0.64683040  0.55867293  0.67294218     0.65700
H1137       H  0.59196606  0.53170470  0.63892346     0.18600
N1138       N  0.62802450  0.51144059  0.53767140     0.76100
H1139       H  0.68217523  0.53766326  0.57177201     0.10100
C1140       C  0.70797556  0.54387888  0.65768862     0.03800
C1141       C  0.73952418  0.55699184  0.66965830    -0.04900
C1142       C  0.76354573  0.58689432  0.65805184    -0.23300
C1143       C  0.75588706  0.60459558  0.63452510     0.13000
C1144       C  0.72429525  0.59151682  0.62261731    -0.12500
N1145       N  0.68411260  0.51297637  0.66993543     0.64700
H1146       H  0.74552648  0.54365144  0.68793019     0.12600
N1147       N  0.77981576  0.63537048  0.62206666     0.61300
H1148       H  0.71828288  0.60474428  0.60421221     0.08700
O1149       O  0.63246167  0.48812980  0.53104714    -0.40100
O1150       O  0.62518333  0.52750890  0.51362811    -0.39300
O1151       O  0.67206070  0.58387741  0.68109069    -0.39300
O1152       O  0.62450984  0.54558348  0.69442217    -0.37000
O1153       O  0.80745607  0.64021281  0.61438856    -0.37900
O1154       O  0.77253919  0.65697957  0.61591547    -0.34100
O1155       O  0.66412202  0.49251098  0.64974475    -0.35500
O1156       O  0.68469441  0.50504823  0.70050638    -0.39800
C1157       C  0.61254131  0.68255301  0.46512926    -0.13500
C1158       C  0.57946307  0.66325858  0.46017486     0.16900
C1159       C  0.56121471  0.67707793  0.44741603     0.03200
C1160       C  0.57665685  0.71005997  0.44026900    -0.12000
C1161       C  0.60978153  0.72937566  0.44538173    -0.03000
C1162       C  0.62788668  0.71547599  0.45835160     0.02500
C1163       C  0.56436401  0.62960876  0.47216742     0.09300
N1164       N  0.52731775  0.65804296  0.44123753     0.65700
H1165       H  0.56286847  0.72069133  0.43005986     0.18600
N1166       N  0.66134750  0.73458558  0.46657221     0.76100
H1167       H  0.62625682  0.67209505  0.47598113     0.10100
C1168       C  0.57372545  0.60785878  0.45950282     0.03800
C1169       C  0.56174244  0.57759783  0.47489549    -0.04900
C1170       C  0.54045170  0.56842542  0.50251646    -0.23300
C1171       C  0.53059550  0.59011719  0.51439761     0.13000
C1172       C  0.54282159  0.62040084  0.49936039    -0.12500
N1173       N  0.59549179  0.61621826  0.43136224     0.64700
H1174       H  0.56948740  0.56128258  0.46541998     0.12600
N1175       N  0.50822018  0.58190954  0.54168708     0.61300
H1176       H  0.53580635  0.63712136  0.50935607     0.08700
O1177       O  0.68016710  0.72339032  0.46250663    -0.40100
O1178       O  0.67134823  0.76083829  0.48192188    -0.39300
O1179       O  0.50921152  0.67019157  0.44437206    -0.39300
O1180       O  0.51573655  0.62995976  0.42984672    -0.37000
O1181       O  0.51628779  0.59840393  0.56845560    -0.37900
O1182       O  0.47930188  0.56097688  0.53729484    -0.34100
O1183       O  0.61555501  0.60625529  0.43039323    -0.35500
O1184       O  0.59331887  0.63169709  0.40629199    -0.39800
C1185       C  0.32992541  0.42128158  0.92342209    -0.13500
C1186       C  0.33885345  0.41130792  0.95312733     0.16900
C1187       C  0.31625564  0.38306121  0.96985527     0.03200
C1188       C  0.28518497  0.36545945  0.95631107    -0.12000
C1189       C  0.27589221  0.37557663  0.92669734    -0.03000
C1190       C  0.29890623  0.40383241  0.91007577     0.02500
C1191       C  0.37204399  0.43077446  0.96597056     0.09300
N1192       N  0.32425823  0.37216747  0.00069197     0.65700
H1193       H  0.26802632  0.34390809  0.96942329     0.18600
N1194       N  0.29129991  0.41540510  0.87974330     0.76100
H1195       H  0.34725953  0.44288789  0.91047299     0.10100
C1196       C  0.39456577  0.41967089  0.96525533     0.03800
C1197       C  0.42510161  0.43863273  0.97955399    -0.04900
C1198       C  0.43366807  0.46833127  0.99449817    -0.23300
C1199       C  0.41074888  0.47901196  0.99568046     0.13000
C1200       C  0.38052208  0.46039038  0.98077380    -0.12500
N1201       N  0.38706505  0.38961611  0.94985492     0.64700
H1202       H  0.44264907  0.43053336  0.97818648     0.12600
N1203       N  0.41713555  0.50780030  0.01321017     0.61300
H1204       H  0.36288947  0.46840560  0.98198584     0.08700
O1205       O  0.30328374  0.41391151  0.85177655    -0.40100
O1206       O  0.27660307  0.43123282  0.88166115    -0.39300
O1207       O  0.34046391  0.39180337  0.02364552    -0.39300
O1208       O  0.31270036  0.34257121  0.00639370    -0.37000
O1209       O  0.40586941  0.52508513  0.00198730    -0.37900
O1210       O  0.43059938  0.51394109  0.04198357    -0.34100
O1211       O  0.36995485  0.38025147  0.92338776    -0.35500
O1212       O  0.39978299  0.37359725  0.96098990    -0.39800
C1213       C  0.58307578  0.62032184  0.98406738    -0.13500
C1214       C  0.56862549  0.63970994  0.98529604     0.16900
C1215       C  0.53646897  0.62641633  0.99621619     0.03200
C1216       C  0.51935073  0.59375098  0.00474682    -0.12000
C1217       C  0.53371996  0.57424626  0.00312004    -0.03000
C1218       C  0.56603594  0.58775350  0.99258369     0.02500
C1219       C  0.58671338  0.67275056  0.97155377     0.09300
N1220       N  0.52113235  0.64574476  0.99932446     0.65700
H1221       H  0.49481748  0.58357595  0.01348752     0.18600
N1222       N  0.58142852  0.56857354  0.98874729     0.76100
H1223       H  0.60745584  0.63035020  0.97486626     0.10100
C1224       C  0.61708003  0.69509681  0.98454371     0.03800
C1225       C  0.63488007  0.72463052  0.96788101    -0.04900
C1226       C  0.62303193  0.73261437  0.93870304    -0.23300
C1227       C  0.59231053  0.71036786  0.92638803     0.13000
C1228       C  0.57467385  0.68074103  0.94269079    -0.12500
N1229       N  0.63014884  0.68819484  0.01444341     0.64700
H1230       H  0.65830425  0.74142126  0.97780511     0.12600
N1231       N  0.57858207  0.71736854  0.89739462     0.61300
H1232       H  0.55154094  0.66357008  0.93238983     0.08700
O1233       O  0.61075970  0.58007430  0.99602054    -0.40100
O1234       O  0.56693174  0.54166449  0.97438625    -0.39300
O1235       O  0.49130531  0.63355547  0.99454143    -0.39300
O1236       O  0.53667274  0.67415474  0.00993254    -0.37000
O1237       O  0.57523309  0.70259646  0.86993934    -0.37900
O1238       O  0.56622472  0.73527270  0.90042876    -0.34100
O1239       O  0.65994808  0.69847563  0.01689794    -0.35500
O1240       O  0.61240364  0.67404494  0.03957555    -0.39800
C1241       C  0.65704574  0.50832584  0.13002075    -0.13500
C1242       C  0.66773376  0.54009311  0.13964068     0.16900
C1243       C  0.64815824  0.55410489  0.13351098     0.03200
C1244       C  0.61781098  0.53562503  0.11883694    -0.12000
C1245       C  0.60650126  0.50344589  0.11004192    -0.03000
C1246       C  0.62689910  0.48993812  0.11466560     0.02500
C1247       C  0.70023577  0.55881677  0.15429646     0.09300
N1248       N  0.65831906  0.58667208  0.14281479     0.65700
H1249       H  0.60230028  0.54608675  0.11573851     0.18600
N1250       N  0.61792925  0.45823526  0.10294759     0.76100
H1251       H  0.67272878  0.49813224  0.13370796     0.10100
C1252       C  0.70684315  0.55425789  0.18818693     0.03800
C1253       C  0.73807442  0.57239928  0.20098450    -0.04900
C1254       C  0.76303402  0.59524260  0.18062534    -0.23300
C1255       C  0.75643212  0.59858298  0.14604309     0.13000
C1256       C  0.72504538  0.58077282  0.13357069    -0.12500
N1257       N  0.68190684  0.53206814  0.21014972     0.64700
H1258       H  0.74249413  0.56935371  0.22743124     0.12600
N1259       N  0.78127992  0.61892391  0.12287866     0.61300
H1260       H  0.72005676  0.58348942  0.10720497     0.08700
O1261       O  0.62822746  0.44164999  0.11804535    -0.40100
O1262       O  0.60268608  0.44809423  0.07540993    -0.39300
O1263       O  0.65106593  0.60384669  0.12425251    -0.39300
O1264       O  0.67201584  0.59750198  0.17096753    -0.37000
O1265       O  0.80526802  0.61492370  0.11869418    -0.37900
O1266       O  0.77662779  0.63670127  0.10239151    -0.34100
O1267       O  0.68640423  0.51271985  0.22826910    -0.35500
O1268       O  0.65640661  0.53353635  0.21363269    -0.39800
C1269       C  0.41339305  0.29067845  0.15071663    -0.13500
C1270       C  0.44568233  0.30848084  0.16051171     0.16900
C1271       C  0.45817486  0.29535945  0.18465261     0.03200
C1272       C  0.43805104  0.26481168  0.19820943    -0.12000
C1273       C  0.40598010  0.24664566  0.18770396    -0.03000
C1274       C  0.39341596  0.26000317  0.16393604     0.02500
C1275       C  0.46518685  0.34138633  0.14658565     0.09300
N1276       N  0.49127483  0.31218248  0.19494885     0.65700
H1277       H  0.44793657  0.25465345  0.21619192     0.18600
N1278       N  0.36026418  0.24351477  0.15401682     0.76100
H1279       H  0.40341819  0.30110051  0.13316956     0.10100
C1280       C  0.46739224  0.34761762  0.11120331     0.03800
C1281       C  0.48424930  0.37934224  0.09954942    -0.04900
C1282       C  0.49977722  0.40493699  0.12218993    -0.23300
C1283       C  0.49760783  0.39881982  0.15754361     0.13000
C1284       C  0.48014806  0.36711289  0.16926586    -0.12500
N1285       N  0.45363252  0.32213419  0.08680681     0.64700
H1286       H  0.48648650  0.38404595  0.07242503     0.12600
N1287       N  0.51221786  0.42436745  0.18178272     0.61300
H1288       H  0.47766682  0.36247088  0.19638801     0.08700
O1289       O  0.35258314  0.24421428  0.12339137    -0.40100
O1290       O  0.33859772  0.23239673  0.17637319    -0.39300
O1291       O  0.49899940  0.30975911  0.22513065    -0.39300
O1292       O  0.51309907  0.32690078  0.17328633    -0.37000
O1293       O  0.51190279  0.45033662  0.17697784    -0.37900
O1294       O  0.52301963  0.42003232  0.20951521    -0.34100
O1295       O  0.44220588  0.32596942  0.05925664    -0.35500
O1296       O  0.45577065  0.29705632  0.09106294    -0.39800
loop_ 
_geom_bond_atom_site_label_1 
_geom_bond_atom_site_label_2 
_geom_bond_distance 
_geom_bond_site_symmetry_2 
_ccdc_geom_bond_type 
C1            C2   1.401       .  A
C1            C6   1.399       .  A
C1         C1282   1.479       .  S
C2            C3   1.410       .  A
C2            H7   1.080       .  S
C3            C4   1.415       .  A
C3           C12   1.506       .  S
C4            C5   1.406       .  A
C4            H8   1.080       .  S
C5            C6   1.401       .  A
C5         C1245   1.489       .  S
C6            H9   1.084       .  S
C10          C11   1.402       .  A
C10          C15   1.399   1_554  A
C10        C1217   1.483       .  S
C11          C12   1.410       .  A
C11          H16   1.080       .  S
C12          C13   1.415       .  A
C13          C14   1.406       .  A
C13          H17   1.079       .  S
C14          C15   1.401   1_554  A
C14        C1198   1.489   1_554  S
C15          H18   1.084       .  S
O19         Cu27   2.001       .  S
O19          C29   1.277       .  A
O20         Cu27   2.006       .  S
O20          C30   1.278       .  A
O21         Cu27   2.015       .  S
O21          C31   1.279       .  A
O22         Cu27   2.014       .  S
O22          C32   1.279       .  A
O23         Cu28   1.993       .  S
O23          C32   1.275       .  A
O24         Cu28   1.998       .  S
O24          C31   1.276       .  A
O25         Cu28   2.006       .  S
O25          C30   1.277       .  A
O26         Cu28   2.004       .  S
O26          C29   1.278       .  A
Cu27        Cu28   2.365       .  S
C29        C1133   1.486       .  S
C30        C1077   1.489       .  S
C31        C1170   1.486       .  S
C32        C1105   1.487       .  S
O33         Cu41   2.010       .  S
O33          C43   1.279       .  A
O34         Cu41   2.008       .  S
O34          C44   1.277       .  A
O35         Cu41   1.998       .  S
O35          C45   1.277       .  A
O36         Cu41   2.002       .  S
O36          C46   1.276       .  A
O37         Cu42   2.009       .  S
O37          C46   1.279       .  A
O38         Cu42   2.004       .  S
O38          C45   1.277       .  A
O39         Cu42   2.012       .  S
O39          C44   1.279       .  A
O40         Cu42   2.007       .  S
O40          C43   1.277       .  A
Cu41        Cu42   2.367       .  S
C43        C1030   1.486       .  S
C44         C993   1.490       .  S
C45         C974   1.477       .  S
C46        C1058   1.489       .  S
C47          C48   1.400       .  A
C47          C52   1.398       .  A
C47         C946   1.478       .  S
C48          C49   1.409   1_545  A
C48          H53   1.081   1_545  S
C49          C50   1.413   1_565  A
C49          C60   1.500       .  S
C50          C51   1.405       .  A
C50          H54   1.081       .  S
C51          C52   1.400       .  A
C51         C918   1.484       .  S
C52          H55   1.084       .  S
C56          C57   1.403       .  A
C56          C61   1.403       .  A
C56        C1049   1.485       .  S
C57          C58   1.400       .  A
C57          H62   1.083   1_554  S
C58          C59   1.402       .  A
C58         C890   1.484   1_554  S
C59          C60   1.411       .  A
C59          H63   1.081       .  S
C60          C61   1.409       .  A
C61          H64   1.081       .  S
C65          C66   1.404       .  A
C65          C70   1.399       .  A
C65         C862   1.484       .  S
C66          C67   1.413       .  A
C66          H71   1.081       .  S
C67          C68   1.408       .  A
C67          C78   1.498   1_655  S
C68          C69   1.401       .  A
C68          H72   1.081       .  S
C69          C70   1.399       .  A
C69         C834   1.478       .  S
C70          H73   1.084       .  S
C74          C75   1.399   1_554  A
C74          C79   1.403       .  A
C74        C1021   1.482   1_554  S
C75          C76   1.403   1_556  A
C75          H80   1.083       .  S
C76          C77   1.404       .  A
C76         C806   1.486       .  S
C77          C78   1.408       .  A
C77          H81   1.081       .  S
C78          C79   1.411       .  A
C79          H82   1.081       .  S
O83         Cu91   2.012       .  S
O83          C93   1.278       .  A
O84         Cu91   2.012       .  S
O84          C94   1.279       .  A
O85         Cu91   1.998       .  S
O85          C95   1.276       .  A
O86         Cu91   1.997       .  S
O86          C96   1.277       .  A
O87         Cu92   2.004       .  S
O87          C96   1.277       .  A
O88         Cu92   2.001       .  S
O88          C95   1.278       .  A
O89         Cu92   2.001       .  S
O89          C94   1.277       .  A
O90         Cu92   2.003       .  S
O90          C93   1.278       .  A
Cu91        Cu92   2.369       .  S
C93         C853   1.489       .  S
C94         C769   1.481       .  S
C95         C741   1.482       .  S
C96         C937   1.475       .  S
C97          C98   1.403       .  A
C97         C102   1.401       .  A
C97         C694   1.490       .  S
C98          C99   1.415       .  A
C98         H103   1.081       .  S
C99         C100   1.414       .  A
C99         C108   1.513       .  S
C100        C101   1.403       .  A
C100        H104   1.093       .  S
C101        C102   1.402       .  A
C101        C722   1.489       .  S
C102        H105   1.082       .  S
C106        C107   1.403       .  A
C106        C111   1.398       .  A
C106        C666   1.484       .  S
C107        C108   1.415       .  A
C107        H112   1.081       .  S
C108        C109   1.414       .  A
C109        C110   1.402       .  A
C109        H113   1.093       .  S
C110        C111   1.398       .  A
C110        C638   1.481       .  S
C111        H114   1.083       .  S
C115        C116   1.401       .  A
C115        C120   1.398       .  A
C115       C1086   1.472       .  S
C116        C117   1.411       .  A
C116        H121   1.081       .  S
C117        C118   1.412       .  A
C117        C126   1.501       .  S
C118        C119   1.402       .  A
C118        H122   1.081       .  S
C119        C120   1.399       .  A
C119        C601   1.480       .  S
C120        H123   1.084       .  S
C124        C125   1.401       .  A
C124        C129   1.399       .  A
C124        C750   1.480       .  S
C125        C126   1.411       .  A
C125        H130   1.081       .  S
C126        C127   1.411       .  A
C127        C128   1.405       .  A
C127        H131   1.080       .  S
C128        C129   1.398       .  A
C128        C573   1.482       .  S
C129        H132   1.084       .  S
O133       Cu141   2.012       .  S
O133        C143   1.278       .  A
O134       Cu141   2.012       .  S
O134        C144   1.278       .  A
O135       Cu141   2.004       .  S
O135        C145   1.278       .  A
O136       Cu141   2.001       .  S
O136        C146   1.277       .  A
O137       Cu142   2.008       .  S
O137        C146   1.278       .  A
O138       Cu142   2.011       .  S
O138        C145   1.278       .  A
O139       Cu142   1.997       .  S
O139        C144   1.277       .  A
O140       Cu142   1.998       .  S
O140        C143   1.277       .  A
Cu141      Cu142   2.369       .  S
C143        C909   1.482       .  S
C144        C582   1.485       .  S
C145        C657   1.486       .  S
C146       C1273   1.480       .  S
O147       Cu155   2.017       .  S
O147        C157   1.279       .  A
O148       Cu155   2.015   1_455  S
O148        C158   1.279       .  A
O149       Cu155   2.015   1_455  S
O149        C159   1.279       .  A
O150       Cu155   2.009       .  S
O150        C160   1.279       .  A
O151       Cu156   2.002       .  S
O151        C160   1.277   1_455  A
O152       Cu156   2.004       .  S
O152        C159   1.277       .  A
O153       Cu156   2.002       .  S
O153        C158   1.277       .  A
O154       Cu156   2.006       .  S
O154        C157   1.277   1_455  A
Cu155      Cu156   2.365   1_655  S
C157        C545   1.493       .  S
C158        C713   1.490       .  S
C159        C610   1.485       .  S
C160        C526   1.488       .  S
C161        C162   1.397       .  A
C161        C166   1.400       .  A
C161       C1142   1.472       .  S
C162        C163   1.398       .  A
C162        H167   1.084       .  S
C163        C164   1.404       .  A
C163        C517   1.484       .  S
C164        C165   1.413       .  A
C164        H168   1.081       .  S
C165        C166   1.410       .  A
C165        C172   1.501       .  S
C166        H169   1.080       .  S
C170        C171   1.401       .  A
C170        C175   1.399       .  A
C170        C965   1.482       .  S
C171        C172   1.410       .  A
C171        H176   1.081       .  S
C172        C173   1.413       .  A
C173        C174   1.404       .  A
C173        H177   1.080       .  S
C174        C175   1.400       .  A
C174        C489   1.485       .  S
C175        H178   1.084       .  S
O179       Cu187   2.008       .  S
O179        C189   1.278       .  A
O180       Cu187   2.009       .  S
O180        C190   1.278       .  A
O181       Cu187   2.001       .  S
O181        C191   1.277       .  A
O182       Cu187   2.004       .  S
O182        C192   1.278       .  A
O183       Cu188   2.017       .  S
O183        C192   1.279       .  A
O184       Cu188   2.011       .  S
O184        C191   1.278       .  A
O185       Cu188   2.007       .  S
O185        C190   1.278       .  A
O186       Cu188   2.007       .  S
O186        C189   1.277       .  A
Cu187      Cu188   2.368       .  S
C189        C498   1.486       .  S
C190        C881   1.482       .  S
C191       C1226   1.486       .  S
C192        C461   1.487       .  S
C193        C194   1.403       .  A
C193        C198   1.401       .  A
C193        C433   1.490       .  S
C194        C195   1.412       .  A
C194        H199   1.081       .  S
C195        C196   1.413       .  A
C195        C206   1.505       .  S
C196        C197   1.408       .  A
C196        H200   1.080       .  S
C197        C198   1.403       .  A
C197        C554   1.491       .  S
C198        H201   1.084       .  S
C202        C203   1.402       .  A
C202        C207   1.407       .  A
C202        C414   1.488       .  S
C203        C204   1.401       .  A
C203        H208   1.084       .  S
C204        C205   1.402       .  A
C204        C470   1.487       .  S
C205        C206   1.412       .  A
C205        H209   1.081       .  S
C206        C207   1.413       .  A
C207        H210   1.080       .  S
O211       Cu219   2.010       .  S
O211        C221   1.278       .  A
O212       Cu219   2.017       .  S
O212        C222   1.280       .  A
O213       Cu219   1.992       .  S
O213        C223   1.276       .  A
O214       Cu219   1.995       .  S
O214        C224   1.276       .  A
O215       Cu220   2.012       .  S
O215        C224   1.279       .  A
O216       Cu220   2.011       .  S
O216        C223   1.277       .  A
O217       Cu220   2.004       .  S
O217        C222   1.277       .  A
O218       Cu220   2.005       .  S
O218        C221   1.278       .  A
Cu219      Cu220   2.367       .  S
C221        C629   1.486       .  S
C222       C1254   1.491       .  S
C223        C825   1.480       .  S
C224        C377   1.481       .  S
C225        C226   1.397       .  A
C225        C230   1.403       .  A
C225       C1161   1.481       .  S
C226        C227   1.398       .  A
C226        H231   1.084       .  S
C227        C228   1.403       .  A
C227        C349   1.477       .  S
C228        C229   1.413       .  A
C228        H232   1.079       .  S
C229        C230   1.413       .  A
C229        C238   1.507       .  S
C230        H233   1.079       .  S
C234        C235   1.400       .  A
C234        C239   1.405       .  A
C234        C778   1.485       .  S
C235        C236   1.399       .  A
C235        H240   1.084       .  S
C236        C237   1.402       .  A
C236        C386   1.481       .  S
C237        C238   1.412       .  A
C237        H241   1.080       .  S
C238        C239   1.413       .  A
C239        H242   1.079       .  S
O243       Cu251   2.010       .  S
O243        C253   1.279       .  A
O244       Cu251   2.011       .  S
O244        C254   1.278   1_565  A
O245       Cu251   1.995       .  S
O245        C255   1.277   1_565  A
O246       Cu251   2.002       .  S
O246        C256   1.277       .  A
O247       Cu252   2.000   1_565  S
O247        C256   1.278       .  A
O248       Cu252   1.994       .  S
O248        C255   1.276       .  A
O249       Cu252   2.010       .  S
O249        C254   1.279       .  A
O250       Cu252   2.009   1_565  S
O250        C253   1.278       .  A
Cu251      Cu252   2.367   1_565  S
C253        C685   1.490       .  S
C254        C442   1.492       .  S
C255        C330   1.477       .  S
C256        C358   1.482       .  S
C257        C258   1.394       .  A
C257        C262   1.405       .  A
C257       C1114   1.480       .  S
C258        C259   1.395       .  A
C258        H263   1.084       .  S
C259        C260   1.401       .  A
C259        C321   1.475       .  S
C260        C261   1.410       .  A
C260        H264   1.079       .  S
C261        C262   1.416       .  A
C261        C268   1.504       .  S
C262        H265   1.080       .  S
C266        C267   1.404       .  A
C266        C271   1.399       .  A
C266       C1002   1.487       .  S
C267        C268   1.414       .  A
C267        H272   1.078       .  S
C268        C269   1.409       .  A
C269        C270   1.402       .  A
C269        H273   1.080       .  S
C270        C271   1.400       .  A
C270        C302   1.483       .  S
C271        H274   1.084       .  S
O275       Cu283   2.017       .  S
O275        C285   1.280       .  A
O276       Cu283   2.015       .  S
O276        C286   1.279       .  A
O277       Cu283   2.000       .  S
O277        C287   1.276       .  A
O278       Cu283   2.002       .  S
O278        C288   1.276       .  A
O279       Cu284   2.001       .  S
O279        C288   1.278       .  A
O280       Cu284   2.003       .  S
O280        C287   1.278       .  A
O281       Cu284   2.009       .  S
O281        C286   1.277       .  A
O282       Cu284   2.006       .  S
O282        C285   1.277       .  A
Cu283      Cu284   2.364       .  S
C285       C1189   1.492       .  S
C286        C405   1.491       .  S
C287        C293   1.486       .  S
C288        C797   1.487       .  S
C289        C290   1.399       .  A
C289        C294   1.397       .  A
C289        H299   1.084       .  S
C290        C291   1.411       .  A
C290        C295   1.474       .  S
C291        C292   1.402       .  A
C291        N296   1.439       .  S
C292        C293   1.408       .  A
C292        H297   1.083       .  S
C293        C294   1.416       .  A
C294        N298   1.429       .  S
C295        C300   1.412       .  A
C295        C304   1.401       .  A
N296        O311   1.263       .  A
N296        O312   1.263       .  A
N298        O309   1.262       .  A
N298        O310   1.262       .  A
C300        C301   1.399       .  A
C300        N305   1.440       .  S
C301        C302   1.405       .  A
C301        H306   1.084       .  S
C302        C303   1.416       .  A
C303        C304   1.403       .  A
C303        N307   1.439       .  S
C304        H308   1.084       .  S
N305        O315   1.263       .  A
N305        O316   1.263       .  A
N307        O313   1.263       .  A
N307        O314   1.263       .  A
C317        C318   1.401       .  A
C317        C322   1.400       .  A
C317        H327   1.084       .  S
C318        C319   1.410       .  A
C318        C323   1.470       .  S
C319        C320   1.397       .  A
C319        N324   1.439       .  S
C320        C321   1.404       .  A
C320        H325   1.084       .  S
C321        C322   1.414       .  A
C322        N326   1.439       .  S
C323        C328   1.410       .  A
C323        C332   1.400       .  A
N324        O339   1.263       .  A
N324        O340   1.263       .  A
N326        O337   1.263       .  A
N326        O338   1.263       .  A
C328        C329   1.400       .  A
C328        N333   1.438       .  S
C329        C330   1.407       .  A
C329        H334   1.083       .  S
C330        C331   1.413       .  A
C331        C332   1.394       .  A
C331        N335   1.429       .  S
C332        H336   1.084       .  S
N333        O343   1.263       .  A
N333        O344   1.263       .  A
N335        O341   1.262       .  A
N335        O342   1.262       .  A
C345        C346   1.401       .  A
C345        C350   1.399       .  A
C345        H355   1.084       .  S
C346        C347   1.410       .  A
C346        C351   1.475       .  S
C347        C348   1.401       .  A
C347        N352   1.434       .  S
C348        C349   1.403       .  A
C348        H353   1.084       .  S
C349        C350   1.413       .  A
C350        N354   1.435       .  S
C351        C356   1.411       .  A
C351        C360   1.400       .  A
N352        O367   1.262       .  A
N352        O368   1.262       .  A
N354        O365   1.262       .  A
N354        O366   1.262       .  A
C356        C357   1.401       .  A
C356        N361   1.438       .  S
C357        C358   1.406       .  A
C357        H362   1.083       .  S
C358        C359   1.414       .  A
C359        C360   1.398       .  A
C359        N363   1.429       .  S
C360        H364   1.084       .  S
N361        O371   1.263       .  A
N361        O372   1.263       .  A
N363        O369   1.262       .  A
N363        O370   1.262       .  A
C373        C374   1.403       .  A
C373        C378   1.400       .  A
C373        H383   1.084       .  S
C374        C375   1.415       .  A
C374        C379   1.485       .  S
C375        C376   1.403       .  A
C375        N380   1.438       .  S
C376        C377   1.405       .  A
C376        H381   1.084       .  S
C377        C378   1.416       .  A
C378        N382   1.436       .  S
C379        C384   1.415       .  A
C379        C388   1.405       .  A
N380        O395   1.263       .  A
N380        O396   1.263       .  A
N382        O393   1.263       .  A
N382        O394   1.262       .  A
C384        C385   1.400       .  A
C384        N389   1.439       .  S
C385        C386   1.403       .  A
C385        H390   1.084       .  S
C386        C387   1.414       .  A
C387        C388   1.404       .  A
C387        N391   1.438       .  S
C388        H392   1.084       .  S
N389        O399   1.263       .  A
N389        O400   1.263       .  A
N391        O397   1.262       .  A
N391        O398   1.263       .  A
C401        C402   1.399       .  A
C401        C406   1.403       .  A
C401        H411   1.084       .  S
C402        C403   1.407       .  A
C402        C407   1.479   1_455  S
C403        C404   1.403       .  A
C403        N408   1.432       .  S
C404        C405   1.409       .  A
C404        H409   1.083       .  S
C405        C406   1.420       .  A
C406        N410   1.433       .  S
C407        C412   1.406       .  A
C407        C416   1.399       .  A
N408        O423   1.262   1_455  A
N408        O424   1.262       .  A
N410        O421   1.262       .  A
N410        O422   1.262       .  A
C412        C413   1.402       .  A
C412        N417   1.430       .  S
C413        C414   1.406       .  A
C413        H418   1.084       .  S
C414        C415   1.419       .  A
C415        C416   1.404       .  A
C415        N419   1.438       .  S
C416        H420   1.084   1_655  S
N417        O427   1.262       .  A
N417        O428   1.262       .  A
N419        O425   1.262       .  A
N419        O426   1.263       .  A
C429        C430   1.401       .  A
C429        C434   1.401       .  A
C429        H439   1.084       .  S
C430        C431   1.415       .  A
C430        C435   1.484       .  S
C431        C432   1.406       .  A
C431        N436   1.440       .  S
C432        C433   1.407       .  A
C432        H437   1.083       .  S
C433        C434   1.417       .  A
C434        N438   1.437       .  S
C435        C440   1.415       .  A
C435        C444   1.402       .  A
N436        O451   1.263       .  A
N436        O452   1.263       .  A
N438        O449   1.263       .  A
N438        O450   1.263       .  A
C440        C441   1.404       .  A
C440        N445   1.439       .  S
C441        C442   1.408       .  A
C441        H446   1.083       .  S
C442        C443   1.416       .  A
C443        C444   1.401       .  A
C443        N447   1.429       .  S
C444        H448   1.084       .  S
N445        O455   1.262       .  A
N445        O456   1.263       .  A
N447        O453   1.262   1_545  A
N447        O454   1.262       .  A
C457        C458   1.401       .  A
C457        C462   1.407       .  A
C457        H467   1.084       .  S
C458        C459   1.405       .  A
C458        C463   1.478       .  S
C459        C460   1.398       .  A
C459        N464   1.430       .  S
C460        C461   1.407       .  A
C460        H465   1.084       .  S
C461        C462   1.419       .  A
C462        N466   1.435       .  S
C463        C468   1.412   1_565  A
C463        C472   1.399   1_565  A
N464        O479   1.262   1_565  A
N464        O480   1.262       .  A
N466        O477   1.263       .  A
N466        O478   1.262       .  A
C468        C469   1.405       .  A
C468        N473   1.436   1_545  S
C469        C470   1.406       .  A
C469        H474   1.084       .  S
C470        C471   1.417       .  A
C471        C472   1.402       .  A
C471        N475   1.437       .  S
C472        H476   1.084       .  S
N473        O483   1.262       .  A
N473        O484   1.262       .  A
N475        O481   1.263       .  A
N475        O482   1.263       .  A
C485        C486   1.401       .  A
C485        C490   1.400       .  A
C485        H495   1.084       .  S
C486        C487   1.414       .  A
C486        C491   1.481       .  S
C487        C488   1.405       .  A
C487        N492   1.439       .  S
C488        C489   1.405       .  A
C488        H493   1.083       .  S
C489        C490   1.417       .  A
C490        N494   1.438       .  S
C491        C496   1.413       .  A
C491        C500   1.401       .  A
N492        O507   1.263       .  A
N492        O508   1.263       .  A
N494        O505   1.263       .  A
N494        O506   1.263       .  A
C496        C497   1.403       .  A
C496        N501   1.438       .  S
C497        C498   1.407       .  A
C497        H502   1.083       .  S
C498        C499   1.415       .  A
C499        C500   1.400       .  A
C499        N503   1.430       .  S
C500        H504   1.084       .  S
N501        O511   1.263       .  A
N501        O512   1.263       .  A
N503        O509   1.262       .  A
N503        O510   1.262       .  A
C513        C514   1.400       .  A
C513        C518   1.401       .  A
C513        H523   1.084       .  S
C514        C515   1.411       .  A
C514        C519   1.476       .  S
C515        C516   1.403       .  A
C515        N520   1.439       .  S
C516        C517   1.405       .  A
C516        H521   1.084       .  S
C517        C518   1.417       .  A
C518        N522   1.438       .  S
C519        C524   1.408       .  A
C519        C528   1.399       .  A
N520        O535   1.262       .  A
N520        O536   1.263       .  A
N522        O533   1.263       .  A
N522        O534   1.263       .  A
C524        C525   1.400       .  A
C524        N529   1.432       .  S
C525        C526   1.407       .  A
C525        H530   1.083       .  S
C526        C527   1.418       .  A
C527        C528   1.401       .  A
C527        N531   1.430       .  S
C528        H532   1.084       .  S
N529        O539   1.262       .  A
N529        O540   1.262       .  A
N531        O537   1.262   1_655  A
N531        O538   1.262       .  A
C541        C542   1.399       .  A
C541        C546   1.402       .  A
C541        H551   1.084       .  S
C542        C543   1.408       .  A
C542        C547   1.480       .  S
C543        C544   1.404       .  A
C543        N548   1.434       .  S
C544        C545   1.410       .  A
C544        H549   1.083       .  S
C545        C546   1.420       .  A
C546        N550   1.433       .  S
C547        C552   1.405       .  A
C547        C556   1.400       .  A
N548        O563   1.262       .  A
N548        O564   1.262       .  A
N550        O561   1.262   1_655  A
N550        O562   1.263       .  A
C552        C553   1.401       .  A
C552        N557   1.428       .  S
C553        C554   1.407       .  A
C553        H558   1.083       .  S
C554        C555   1.421       .  A
C555        C556   1.404       .  A
C555        N559   1.438       .  S
C556        H560   1.084       .  S
N557        O567   1.262       .  A
N557        O568   1.262       .  A
N559        O565   1.263       .  A
N559        O566   1.263       .  A
C569        C570   1.402       .  A
C569        C574   1.403       .  A
C569        H579   1.084       .  S
C570        C571   1.412       .  A
C570        C575   1.477       .  S
C571        C572   1.402       .  A
C571        N576   1.440       .  S
C572        C573   1.405       .  A
C572        H577   1.084       .  S
C573        C574   1.415       .  A
C574        N578   1.439       .  S
C575        C580   1.412       .  A
C575        C584   1.400       .  A
N576        O591   1.263       .  A
N576        O592   1.263       .  A
N578        O589   1.263       .  A
N578        O590   1.263       .  A
C580        C581   1.403       .  A
C580        N585   1.439       .  S
C581        C582   1.408       .  A
C581        H586   1.083       .  S
C582        C583   1.415       .  A
C583        C584   1.400       .  A
C583        N587   1.431       .  S
C584        H588   1.084       .  S
N585        O595   1.263       .  A
N585        O596   1.263       .  A
N587        O593   1.262       .  A
N587        O594   1.262       .  A
C597        C598   1.401       .  A
C597        C602   1.399       .  A
C597        H607   1.084       .  S
C598        C599   1.414       .  A
C598        C603   1.480       .  S
C599        C600   1.407       .  A
C599        N604   1.438       .  S
C600        C601   1.404       .  A
C600        H605   1.084       .  S
C601        C602   1.414       .  A
C602        N606   1.438       .  S
C603        C608   1.413       .  A
C603        C612   1.400       .  A
N604        O619   1.262       .  A
N604        O620   1.263       .  A
N606        O617   1.263       .  A
N606        O618   1.263       .  A
C608        C609   1.407       .  A
C608        N613   1.439       .  S
C609        C610   1.407       .  A
C609        H614   1.083       .  S
C610        C611   1.416       .  A
C611        C612   1.399       .  A
C611        N615   1.435       .  S
C612        H616   1.084       .  S
N613        O623   1.262       .  A
N613        O624   1.263       .  A
N615        O621   1.263       .  A
N615        O622   1.262       .  A
C625        C626   1.403   1_655  A
C625        C630   1.401       .  A
C625        H635   1.084       .  S
C626        C627   1.415   1_455  A
C626        C631   1.488       .  S
C627        C628   1.404       .  A
C627        N632   1.439   1_655  S
C628        C629   1.407       .  A
C628        H633   1.083       .  S
C629        C630   1.416       .  A
C630        N634   1.434       .  S
C631        C636   1.416       .  A
C631        C640   1.405       .  A
N632        O647   1.263       .  A
N632        O648   1.263       .  A
N634        O645   1.263       .  A
N634        O646   1.262       .  A
C636        C637   1.403       .  A
C636        N641   1.439       .  S
C637        C638   1.403       .  A
C637        H642   1.083       .  S
C638        C639   1.413       .  A
C639        C640   1.403       .  A
C639        N643   1.439       .  S
C640        H644   1.083       .  S
N641        O651   1.263       .  A
N641        O652   1.263   1_455  A
N643        O649   1.263       .  A
N643        O650   1.263       .  A
C653        C654   1.403       .  A
C653        C658   1.399       .  A
C653        H663   1.084   1_545  S
C654        C655   1.414       .  A
C654        C659   1.484   1_545  S
C655        C656   1.404       .  A
C655        N660   1.438       .  S
C656        C657   1.407       .  A
C656        H661   1.083       .  S
C657        C658   1.413       .  A
C658        N662   1.429       .  S
C659        C664   1.414       .  A
C659        C668   1.403       .  A
N660        O675   1.263       .  A
N660        O676   1.263       .  A
N662        O673   1.262       .  A
N662        O674   1.262       .  A
C664        C665   1.403       .  A
C664        N669   1.439       .  S
C665        C666   1.404       .  A
C665        H670   1.084       .  S
C666        C667   1.416       .  A
C667        C668   1.402       .  A
C667        N671   1.438       .  S
C668        H672   1.084       .  S
N669        O679   1.263       .  A
N669        O680   1.263   1_565  A
N671        O677   1.263       .  A
N671        O678   1.263       .  A
C681        C682   1.403       .  A
C681        C686   1.400       .  A
C681        H691   1.084       .  S
C682        C683   1.415       .  A
C682        C687   1.486       .  S
C683        C684   1.404       .  A
C683        N688   1.439       .  S
C684        C685   1.407       .  A
C684        H689   1.083       .  S
C685        C686   1.416       .  A
C686        N690   1.429       .  S
C687        C692   1.415       .  A
C687        C696   1.403       .  A
N688        O703   1.263       .  A
N688        O704   1.263       .  A
N690        O701   1.262       .  A
N690        O702   1.262       .  A
C692        C693   1.404       .  A
C692        N697   1.439       .  S
C693        C694   1.406       .  A
C693        H698   1.083       .  S
C694        C695   1.415       .  A
C695        C696   1.403       .  A
C695        N699   1.435       .  S
C696        H700   1.084       .  S
N697        O707   1.263       .  A
N697        O708   1.263       .  A
N699        O705   1.262       .  A
N699        O706   1.263       .  A
C709        C710   1.401       .  A
C709        C714   1.399       .  A
C709        H719   1.084       .  S
C710        C711   1.415       .  A
C710        C715   1.483       .  S
C711        C712   1.406       .  A
C711        N716   1.439       .  S
C712        C713   1.408       .  A
C712        H717   1.083       .  S
C713        C714   1.416       .  A
C714        N718   1.431       .  S
C715        C720   1.416       .  A
C715        C724   1.401       .  A
N716        O731   1.262       .  A
N716        O732   1.263       .  A
N718        O729   1.262       .  A
N718        O730   1.262       .  A
C720        C721   1.408       .  A
C720        N725   1.440       .  S
C721        C722   1.407       .  A
C721        H726   1.082       .  S
C722        C723   1.415       .  A
C723        C724   1.399       .  A
C723        N727   1.435       .  S
C724        H728   1.084       .  S
N725        O735   1.262       .  A
N725        O736   1.263       .  A
N727        O733   1.262       .  A
N727        O734   1.263       .  A
C737        C738   1.402       .  A
C737        C742   1.399       .  A
C737        H747   1.084       .  S
C738        C739   1.413       .  A
C738        C743   1.479   1_655  S
C739        C740   1.400       .  A
C739        N744   1.438   1_655  S
C740        C741   1.405       .  A
C740        H745   1.083       .  S
C741        C742   1.415       .  A
C742        N746   1.430       .  S
C743        C748   1.414       .  A
C743        C752   1.403       .  A
N744        O759   1.263   1_455  A
N744        O760   1.263       .  A
N746        O757   1.262       .  A
N746        O758   1.262       .  A
C748        C749   1.400       .  A
C748        N753   1.439       .  S
C749        C750   1.404       .  A
C749        H754   1.084       .  S
C750        C751   1.414       .  A
C751        C752   1.402       .  A
C751        N755   1.439       .  S
C752        H756   1.084       .  S
N753        O763   1.263       .  A
N753        O764   1.263       .  A
N755        O761   1.263       .  A
N755        O762   1.263       .  A
C765        C766   1.399   1_545  A
C765        C770   1.399       .  A
C765        H775   1.084   1_545  S
C766        C767   1.411   1_565  A
C766        C771   1.476       .  S
C767        C768   1.404       .  A
C767        N772   1.436       .  S
C768        C769   1.406       .  A
C768        H773   1.084       .  S
C769        C770   1.415       .  A
C770        N774   1.431       .  S
C771        C776   1.409       .  A
C771        C780   1.400       .  A
N772        O787   1.262       .  A
N772        O788   1.262       .  A
N774        O785   1.262       .  A
N774        O786   1.262       .  A
C776        C777   1.401       .  A
C776        N781   1.435       .  S
C777        C778   1.405       .  A
C777        H782   1.084       .  S
C778        C779   1.418       .  A
C779        C780   1.403       .  A
C779        N783   1.437       .  S
C780        H784   1.084       .  S
N781        O791   1.262       .  A
N781        O792   1.263       .  A
N783        O789   1.262       .  A
N783        O790   1.263       .  A
C793        C794   1.401       .  A
C793        C798   1.399       .  A
C793        H803   1.084   1_556  S
C794        C795   1.412       .  A
C794        C799   1.479       .  S
C795        C796   1.401       .  A
C795        N800   1.439       .  S
C796        C797   1.408       .  A
C796        H801   1.083       .  S
C797        C798   1.417       .  A
C798        N802   1.432       .  S
C799        C804   1.412       .  A
C799        C808   1.402       .  A
N800        O815   1.263       .  A
N800        O816   1.263       .  A
N802        O813   1.262   1_556  A
N802        O814   1.262   1_556  A
C804        C805   1.399       .  A
C804        N809   1.438       .  S
C805        C806   1.406   1_556  A
C805        H810   1.084       .  S
C806        C807   1.417   1_554  A
C807        C808   1.403       .  A
C807        N811   1.438   1_556  S
C808        H812   1.084       .  S
N809        O819   1.263       .  A
N809        O820   1.263       .  A
N811        O817   1.263   1_554  A
N811        O818   1.263       .  A
C821        C822   1.401       .  A
C821        C826   1.401       .  A
C821        H831   1.084       .  S
C822        C823   1.409       .  A
C822        C827   1.475       .  S
C823        C824   1.399       .  A
C823        N828   1.437       .  S
C824        C825   1.406       .  A
C824        H829   1.084       .  S
C825        C826   1.414       .  A
C826        N830   1.432       .  S
C827        C832   1.410       .  A
C827        C836   1.402       .  A
N828        O843   1.262       .  A
N828        O844   1.263       .  A
N830        O841   1.262       .  A
N830        O842   1.262       .  A
C832        C833   1.400       .  A
C832        N837   1.438       .  S
C833        C834   1.404       .  A
C833        H838   1.084       .  S
C834        C835   1.415       .  A
C835        C836   1.402       .  A
C835        N839   1.439   1_655  S
C836        H840   1.084       .  S
N837        O847   1.263       .  A
N837        O848   1.263       .  A
N839        O845   1.263       .  A
N839        O846   1.263       .  A
C849        C850   1.403       .  A
C849        C854   1.399       .  A
C849        H859   1.084       .  S
C850        C851   1.414       .  A
C850        C855   1.486       .  S
C851        C852   1.404       .  A
C851        N856   1.439       .  S
C852        C853   1.408       .  A
C852        H857   1.083       .  S
C853        C854   1.415       .  A
C854        N858   1.430       .  S
C855        C860   1.415       .  A
C855        C864   1.404       .  A
N856        O871   1.263       .  A
N856        O872   1.263       .  A
N858        O869   1.262       .  A
N858        O870   1.262       .  A
C860        C861   1.403       .  A
C860        N865   1.439       .  S
C861        C862   1.404       .  A
C861        H866   1.084       .  S
C862        C863   1.415       .  A
C863        C864   1.402       .  A
C863        N867   1.438       .  S
C864        H868   1.084       .  S
N865        O875   1.263       .  A
N865        O876   1.263       .  A
N867        O873   1.263   1_655  A
N867        O874   1.263   1_655  A
C877        C878   1.405       .  A
C877        C882   1.402       .  A
C877        H887   1.084       .  S
C878        C879   1.416       .  A
C878        C883   1.489       .  S
C879        C880   1.404       .  A
C879        N884   1.439       .  S
C880        C881   1.405       .  A
C880        H885   1.084       .  S
C881        C882   1.414       .  A
C882        N886   1.436       .  S
C883        C888   1.416   1_556  A
C883        C892   1.406       .  A
N884        O899   1.263       .  A
N884        O900   1.263       .  A
N886        O897   1.263       .  A
N886        O898   1.263       .  A
C888        C889   1.403       .  A
C888        N893   1.439       .  S
C889        C890   1.404   1_554  A
C889        H894   1.084       .  S
C890        C891   1.414       .  A
C891        C892   1.404       .  A
C891        N895   1.438       .  S
C892        H896   1.084       .  S
N893        O903   1.263       .  A
N893        O904   1.263       .  A
N895        O901   1.263       .  A
N895        O902   1.263       .  A
C905        C906   1.400       .  A
C905        C910   1.402       .  A
C905        H915   1.084       .  S
C906        C907   1.407       .  A
C906        C911   1.474       .  S
C907        C908   1.401       .  A
C907        N912   1.434       .  S
C908        C909   1.407       .  A
C908        H913   1.084       .  S
C909        C910   1.416       .  A
C910        N914   1.434       .  S
C911        C916   1.407       .  A
C911        C920   1.399       .  A
N912        O927   1.262       .  A
N912        O928   1.262       .  A
N914        O925   1.262       .  A
N914        O926   1.262       .  A
C916        C917   1.401       .  A
C916        N921   1.433       .  S
C917        C918   1.407       .  A
C917        H922   1.084       .  S
C918        C919   1.417       .  A
C919        C920   1.401       .  A
C919        N923   1.436       .  S
C920        H924   1.084       .  S
N921        O931   1.262       .  A
N921        O932   1.262       .  A
N923        O929   1.262   1_545  A
N923        O930   1.263   1_545  A
C933        C934   1.403       .  A
C933        C938   1.399       .  A
C933        H943   1.084       .  S
C934        C935   1.414       .  A
C934        C939   1.482       .  S
C935        C936   1.403       .  A
C935        N940   1.439       .  S
C936        C937   1.404       .  A
C936        H941   1.083       .  S
C937        C938   1.413       .  A
C938        N942   1.437       .  S
C939        C944   1.415       .  A
C939        C948   1.402       .  A
N940        O955   1.263       .  A
N940        O956   1.263       .  A
N942        O953   1.263       .  A
N942        O954   1.263       .  A
C944        C945   1.401       .  A
C944        N949   1.439       .  S
C945        C946   1.403       .  A
C945        H950   1.084       .  S
C946        C947   1.415       .  A
C947        C948   1.400       .  A
C947        N951   1.438       .  S
C948        H952   1.084       .  S
N949        O959   1.263       .  A
N949        O960   1.263       .  A
N951        O957   1.263       .  A
N951        O958   1.263       .  A
C961        C962   1.399       .  A
C961        C966   1.400       .  A
C961        H971   1.084       .  S
C962        C963   1.409       .  A
C962        C967   1.472   1_655  S
C963        C964   1.401       .  A
C963        N968   1.436   1_655  S
C964        C965   1.406       .  A
C964        H969   1.084       .  S
C965        C966   1.417       .  A
C966        N970   1.436       .  S
C967        C972   1.404       .  A
C967        C976   1.400       .  A
N968        O983   1.262       .  A
N968        O984   1.262       .  A
N970        O981   1.262       .  A
N970        O982   1.263       .  A
C972        C973   1.394       .  A
C972        N977   1.429       .  S
C973        C974   1.405       .  A
C973        H978   1.084       .  S
C974        C975   1.418       .  A
C975        C976   1.404       .  A
C975        N979   1.435       .  S
C976        H980   1.084       .  S
N977        O987   1.262   1_455  A
N977        O988   1.262   1_455  A
N979        O985   1.262       .  A
N979        O986   1.263       .  A
C989        C990   1.401       .  A
C989        C994   1.399       .  A
C989        H999   1.084       .  S
C990        C991   1.413       .  A
C990        C995   1.483   1_565  S
C991        C992   1.405       .  A
C991        N996   1.438       .  S
C992        C993   1.408       .  A
C992        H997   1.083       .  S
C993        C994   1.416       .  A
C994        N998   1.429       .  S
C995       C1000   1.412       .  A
C995       C1004   1.403       .  A
N996       O1011   1.262       .  A
N996       O1012   1.263       .  A
N998       O1009   1.262       .  A
N998       O1010   1.262       .  A
C1000      C1001   1.402       .  A
C1000      N1005   1.439   1_545  S
C1001      C1002   1.406       .  A
C1001      H1006   1.084       .  S
C1002      C1003   1.417       .  A
C1003      C1004   1.404       .  A
C1003      N1007   1.438       .  S
C1004      H1008   1.084       .  S
N1005      O1015   1.263   1_565  A
N1005      O1016   1.263       .  A
N1007      O1013   1.263       .  A
N1007      O1014   1.263       .  A
C1017      C1018   1.404       .  A
C1017      C1022   1.401   1_556  A
C1017      H1027   1.084   1_556  S
C1018      C1019   1.417       .  A
C1018      C1023   1.490       .  S
C1019      C1020   1.406       .  A
C1019      N1024   1.439       .  S
C1020      C1021   1.403       .  A
C1020      H1025   1.084       .  S
C1021      C1022   1.414   1_556  A
C1022      N1026   1.438       .  S
C1023      C1028   1.415       .  A
C1023      C1032   1.404       .  A
N1024      O1039   1.263       .  A
N1024      O1040   1.263       .  A
N1026      O1037   1.263       .  A
N1026      O1038   1.263       .  A
C1028      C1029   1.404       .  A
C1028      N1033   1.439       .  S
C1029      C1030   1.406       .  A
C1029      H1034   1.083       .  S
C1030      C1031   1.416       .  A
C1031      C1032   1.402       .  A
C1031      N1035   1.435       .  S
C1032      H1036   1.084       .  S
N1033      O1043   1.263       .  A
N1033      O1044   1.263       .  A
N1035      O1041   1.263       .  A
N1035      O1042   1.263       .  A
C1045      C1046   1.401       .  A
C1045      C1050   1.404   1_556  A
C1045      H1055   1.084       .  S
C1046      C1047   1.411       .  A
C1046      C1051   1.475       .  S
C1047      C1048   1.401       .  A
C1047      N1052   1.439       .  S
C1048      C1049   1.406   1_556  A
C1048      H1053   1.084       .  S
C1049      C1050   1.416       .  A
C1050      N1054   1.440       .  S
C1051      C1056   1.406       .  A
C1051      C1060   1.399       .  A
N1052      O1067   1.263       .  A
N1052      O1068   1.263       .  A
N1054      O1065   1.263       .  A
N1054      O1066   1.263       .  A
C1056      C1057   1.399       .  A
C1056      N1061   1.433       .  S
C1057      C1058   1.408       .  A
C1057      H1062   1.083       .  S
C1058      C1059   1.421       .  A
C1059      C1060   1.403       .  A
C1059      N1063   1.434       .  S
C1060      H1064   1.084   1_556  S
N1061      O1071   1.262       .  A
N1061      O1072   1.262       .  A
N1063      O1069   1.263       .  A
N1063      O1070   1.262   1_556  A
C1073      C1074   1.399       .  A
C1073      C1078   1.400       .  A
C1073      H1083   1.084       .  S
C1074      C1075   1.409       .  A
C1074      C1079   1.477       .  S
C1075      C1076   1.403       .  A
C1075      N1080   1.437       .  S
C1076      C1077   1.410       .  A
C1076      H1081   1.083       .  S
C1077      C1078   1.418       .  A
C1078      N1082   1.433       .  S
C1079      C1084   1.411       .  A
C1079      C1088   1.402       .  A
N1080      O1095   1.262       .  A
N1080      O1096   1.263       .  A
N1082      O1093   1.262       .  A
N1082      O1094   1.262       .  A
C1084      C1085   1.403       .  A
C1084      N1089   1.433       .  S
C1085      C1086   1.402       .  A
C1085      H1090   1.084       .  S
C1086      C1087   1.406       .  A
C1087      C1088   1.398       .  A
C1087      N1091   1.429       .  S
C1088      H1092   1.084       .  S
N1089      O1099   1.262       .  A
N1089      O1100   1.262       .  A
N1091      O1097   1.262       .  A
N1091      O1098   1.262       .  A
C1101      C1102   1.397       .  A
C1101      C1106   1.396       .  A
C1101      H1111   1.084       .  S
C1102      C1103   1.412       .  A
C1102      C1107   1.476       .  S
C1103      C1104   1.403       .  A
C1103      N1108   1.437       .  S
C1104      C1105   1.407       .  A
C1104      H1109   1.083       .  S
C1105      C1106   1.417       .  A
C1106      N1110   1.429       .  S
C1107      C1112   1.412       .  A
C1107      C1116   1.401       .  A
N1108      O1123   1.262       .  A
N1108      O1124   1.262       .  A
N1110      O1121   1.262       .  A
N1110      O1122   1.262       .  A
C1112      C1113   1.403       .  A
C1112      N1117   1.440       .  S
C1113      C1114   1.406       .  A
C1113      H1118   1.084       .  S
C1114      C1115   1.413       .  A
C1115      C1116   1.400       .  A
C1115      N1119   1.437       .  S
C1116      H1120   1.084       .  S
N1117      O1127   1.263       .  A
N1117      O1128   1.263       .  A
N1119      O1125   1.262       .  A
N1119      O1126   1.263       .  A
C1129      C1130   1.399       .  A
C1129      C1134   1.397       .  A
C1129      H1139   1.084       .  S
C1130      C1131   1.412       .  A
C1130      C1135   1.473       .  S
C1131      C1132   1.404       .  A
C1131      N1136   1.440       .  S
C1132      C1133   1.408       .  A
C1132      H1137   1.083       .  S
C1133      C1134   1.416       .  A
C1134      N1138   1.430       .  S
C1135      C1140   1.412       .  A
C1135      C1144   1.402       .  A
N1136      O1151   1.262       .  A
N1136      O1152   1.263       .  A
N1138      O1149   1.262       .  A
N1138      O1150   1.262       .  A
C1140      C1141   1.401       .  A
C1140      N1145   1.438       .  S
C1141      C1142   1.402       .  A
C1141      H1146   1.084       .  S
C1142      C1143   1.412       .  A
C1143      C1144   1.402       .  A
C1143      N1147   1.438       .  S
C1144      H1148   1.084       .  S
N1145      O1155   1.262       .  A
N1145      O1156   1.263       .  A
N1147      O1153   1.263       .  A
N1147      O1154   1.263       .  A
C1157      C1158   1.401       .  A
C1157      C1162   1.400       .  A
C1157      H1167   1.084       .  S
C1158      C1159   1.415       .  A
C1158      C1163   1.481       .  S
C1159      C1160   1.405       .  A
C1159      N1164   1.439       .  S
C1160      C1161   1.404       .  A
C1160      H1165   1.084       .  S
C1161      C1162   1.415       .  A
C1162      N1166   1.438       .  S
C1163      C1168   1.413       .  A
C1163      C1172   1.400       .  A
N1164      O1179   1.263       .  A
N1164      O1180   1.263       .  A
N1166      O1177   1.263       .  A
N1166      O1178   1.263       .  A
C1168      C1169   1.404       .  A
C1168      N1173   1.438       .  S
C1169      C1170   1.407       .  A
C1169      H1174   1.083       .  S
C1170      C1171   1.416       .  A
C1171      C1172   1.398       .  A
C1171      N1175   1.431       .  S
C1172      H1176   1.084       .  S
N1173      O1183   1.263       .  A
N1173      O1184   1.263       .  A
N1175      O1181   1.262       .  A
N1175      O1182   1.262       .  A
C1185      C1186   1.400       .  A
C1185      C1190   1.400       .  A
C1185      H1195   1.084       .  S
C1186      C1187   1.413       .  A
C1186      C1191   1.482       .  S
C1187      C1188   1.406       .  A
C1187      N1192   1.438   1_556  S
C1188      C1189   1.408       .  A
C1188      H1193   1.083       .  S
C1189      C1190   1.417       .  A
C1190      N1194   1.430       .  S
C1191      C1196   1.414       .  A
C1191      C1200   1.401       .  A
N1192      O1207   1.263       .  A
N1192      O1208   1.263       .  A
N1194      O1205   1.262       .  A
N1194      O1206   1.262       .  A
C1196      C1197   1.406       .  A
C1196      N1201   1.440       .  S
C1197      C1198   1.406       .  A
C1197      H1202   1.083       .  S
C1198      C1199   1.417       .  A
C1199      C1200   1.402       .  A
C1199      N1203   1.438   1_556  S
C1200      H1204   1.084       .  S
N1201      O1211   1.263       .  A
N1201      O1212   1.263       .  A
N1203      O1209   1.263       .  A
N1203      O1210   1.263       .  A
C1213      C1214   1.402       .  A
C1213      C1218   1.400       .  A
C1213      H1223   1.084       .  S
C1214      C1215   1.414       .  A
C1214      C1219   1.482       .  S
C1215      C1216   1.404   1_556  A
C1215      N1220   1.439       .  S
C1216      C1217   1.405       .  A
C1216      H1221   1.084       .  S
C1217      C1218   1.415   1_554  A
C1218      N1222   1.438       .  S
C1219      C1224   1.413       .  A
C1219      C1228   1.402       .  A
N1220      O1235   1.263       .  A
N1220      O1236   1.263   1_556  A
N1222      O1233   1.263       .  A
N1222      O1234   1.263       .  A
C1224      C1225   1.403       .  A
C1224      N1229   1.438   1_556  S
C1225      C1226   1.407       .  A
C1225      H1230   1.083       .  S
C1226      C1227   1.414       .  A
C1227      C1228   1.399       .  A
C1227      N1231   1.429       .  S
C1228      H1232   1.084       .  S
N1229      O1239   1.263       .  A
N1229      O1240   1.263       .  A
N1231      O1237   1.262       .  A
N1231      O1238   1.262       .  A
C1241      C1242   1.402       .  A
C1241      C1246   1.406       .  A
C1241      H1251   1.084       .  S
C1242      C1243   1.410       .  A
C1242      C1247   1.479       .  S
C1243      C1244   1.402       .  A
C1243      N1248   1.438       .  S
C1244      C1245   1.406       .  A
C1244      H1249   1.084       .  S
C1245      C1246   1.418       .  A
C1246      N1250   1.439       .  S
C1247      C1252   1.408       .  A
C1247      C1256   1.399       .  A
N1248      O1263   1.262       .  A
N1248      O1264   1.263       .  A
N1250      O1261   1.263       .  A
N1250      O1262   1.263       .  A
C1252      C1253   1.403       .  A
C1252      N1257   1.434       .  S
C1253      C1254   1.409       .  A
C1253      H1258   1.083       .  S
C1254      C1255   1.420       .  A
C1255      C1256   1.403       .  A
C1255      N1259   1.435       .  S
C1256      H1260   1.084       .  S
N1257      O1267   1.262       .  A
N1257      O1268   1.262       .  A
N1259      O1265   1.263       .  A
N1259      O1266   1.262       .  A
C1269      C1270   1.404       .  A
C1269      C1274   1.401       .  A
C1269      H1279   1.084       .  S
C1270      C1271   1.415       .  A
C1270      C1275   1.486       .  S
C1271      C1272   1.403       .  A
C1271      N1276   1.438       .  S
C1272      C1273   1.405       .  A
C1272      H1277   1.084       .  S
C1273      C1274   1.415       .  A
C1274      N1278   1.436       .  S
C1275      C1280   1.415       .  A
C1275      C1284   1.405       .  A
N1276      O1291   1.263       .  A
N1276      O1292   1.263       .  A
N1278      O1289   1.263       .  A
N1278      O1290   1.263       .  A
C1280      C1281   1.401       .  A
C1280      N1285   1.439       .  S
C1281      C1282   1.403       .  A
C1281      H1286   1.084       .  S
C1282      C1283   1.413       .  A
C1283      C1284   1.403       .  A
C1283      N1287   1.439       .  S
C1284      H1288   1.084       .  S
N1285      O1295   1.263       .  A
N1285      O1296   1.263       .  A
N1287      O1293   1.263       .  A
N1287      O1294   1.263       .  A
